*SPEF "ieee 1481-1999"
*DESIGN "Slave"
*DATE "23:53:52 Thursday June 11, 2026"
*VENDOR "The OpenROAD Project"
*PROGRAM "OpenROAD"
*VERSION "edf00dff99f6c40d67a30c0e22a8191c5d2ed9d6"
*DESIGN_FLOW "NAME_SCOPE LOCAL" "PIN_CAP NONE"
*DIVIDER /
*DELIMITER :
*BUS_DELIMITER []
*T_UNIT 1 NS
*C_UNIT 1 PF
*R_UNIT 1 OHM
*L_UNIT 1 HENRY

*NAME_MAP
*3 clkin
*4 data_in[0]
*5 data_in[1]
*6 data_in[2]
*7 data_in[3]
*8 data_in[4]
*9 data_in[5]
*10 data_in[6]
*11 data_in[7]
*12 data_out[0]
*13 data_out[1]
*14 data_out[2]
*15 data_out[3]
*16 data_out[4]
*17 data_out[5]
*18 data_out[6]
*19 data_out[7]
*20 reset
*21 sclk
*22 sdi
*23 sdo
*24 slave_select_in
*25 _000_
*26 _001_
*27 _002_
*28 _003_
*29 _004_
*30 _005_
*31 _006_
*32 _007_
*33 _008_
*34 _009_
*35 _010_
*36 _011_
*37 _012_
*38 _013_
*39 _014_
*40 _015_
*41 _016_
*42 _017_
*43 _018_
*44 _019_
*45 _020_
*46 _021_
*47 _022_
*48 _023_
*49 _024_
*50 _025_
*51 _026_
*52 _027_
*53 _028_
*54 _029_
*55 _030_
*56 _031_
*57 _032_
*58 _033_
*59 _034_
*60 _035_
*61 _036_
*62 _037_
*63 _038_
*64 _039_
*65 _040_
*66 _041_
*67 _042_
*68 _043_
*69 _044_
*70 _045_
*71 _046_
*72 _047_
*73 _048_
*74 _049_
*75 _050_
*76 _051_
*77 _052_
*78 _053_
*79 _054_
*80 _055_
*81 _056_
*82 _057_
*83 _058_
*84 _059_
*85 _060_
*86 _061_
*87 _062_
*88 _063_
*89 _064_
*90 _065_
*91 _066_
*92 _067_
*93 _068_
*94 _069_
*95 _070_
*96 clknet_0_clkin
*97 clknet_2_0__leaf_clkin
*98 clknet_2_1__leaf_clkin
*99 clknet_2_2__leaf_clkin
*100 clknet_2_3__leaf_clkin
*101 datacounter\[0\]
*102 datacounter\[1\]
*103 datacounter\[2\]
*104 net1
*105 net10
*106 net11
*107 net12
*108 net13
*109 net14
*110 net15
*111 net16
*112 net17
*113 net18
*114 net19
*115 net2
*116 net20
*117 net21
*118 net22
*119 net23
*120 net24
*121 net25
*122 net26
*123 net27
*124 net28
*125 net29
*126 net3
*127 net30
*128 net31
*129 net32
*130 net33
*131 net34
*132 net35
*133 net36
*134 net37
*135 net38
*136 net39
*137 net4
*138 net40
*139 net41
*140 net42
*141 net43
*142 net44
*143 net45
*144 net46
*145 net47
*146 net48
*147 net49
*148 net5
*149 net50
*150 net51
*151 net52
*152 net53
*153 net54
*154 net55
*155 net56
*156 net57
*157 net58
*158 net6
*159 net7
*160 net8
*161 net9
*162 rx
*163 shiftreg_rx\[0\]
*164 shiftreg_rx\[1\]
*165 shiftreg_rx\[2\]
*166 shiftreg_rx\[3\]
*167 shiftreg_rx\[4\]
*168 shiftreg_rx\[5\]
*169 shiftreg_rx\[6\]
*170 shiftreg_rx\[7\]
*171 shiftreg_tx\[0\]
*172 shiftreg_tx\[1\]
*173 shiftreg_tx\[2\]
*174 shiftreg_tx\[3\]
*175 shiftreg_tx\[4\]
*176 shiftreg_tx\[5\]
*177 shiftreg_tx\[6\]
*178 shiftreg_tx\[7\]
*179 state\[0\]
*180 state\[1\]
*181 state\[2\]
*182 FILLER_0_103
*183 FILLER_0_113
*184 FILLER_0_15
*185 FILLER_0_27
*186 FILLER_0_29
*187 FILLER_0_3
*188 FILLER_0_50
*189 FILLER_0_57
*190 FILLER_0_72
*191 FILLER_0_97
*192 FILLER_10_109
*193 FILLER_10_13
*194 FILLER_10_23
*195 FILLER_10_27
*196 FILLER_10_37
*197 FILLER_10_49
*198 FILLER_10_7
*199 FILLER_10_80
*200 FILLER_10_85
*201 FILLER_10_97
*202 FILLER_11_113
*203 FILLER_11_55
*204 FILLER_12_110
*205 FILLER_12_114
*206 FILLER_12_27
*207 FILLER_12_57
*208 FILLER_12_6
*209 FILLER_13_113
*210 FILLER_13_3
*211 FILLER_13_46
*212 FILLER_13_50
*213 FILLER_13_54
*214 FILLER_13_57
*215 FILLER_13_82
*216 FILLER_13_9
*217 FILLER_14_106
*218 FILLER_14_114
*219 FILLER_14_25
*220 FILLER_14_29
*221 FILLER_14_38
*222 FILLER_14_50
*223 FILLER_14_6
*224 FILLER_14_91
*225 FILLER_15_108
*226 FILLER_15_113
*227 FILLER_15_31
*228 FILLER_15_52
*229 FILLER_15_6
*230 FILLER_15_64
*231 FILLER_15_76
*232 FILLER_15_84
*233 FILLER_16_109
*234 FILLER_16_23
*235 FILLER_16_27
*236 FILLER_16_49
*237 FILLER_16_81
*238 FILLER_16_85
*239 FILLER_16_97
*240 FILLER_17_102
*241 FILLER_17_110
*242 FILLER_17_113
*243 FILLER_17_3
*244 FILLER_17_30
*245 FILLER_17_57
*246 FILLER_17_9
*247 FILLER_17_90
*248 FILLER_18_105
*249 FILLER_18_113
*250 FILLER_18_15
*251 FILLER_18_27
*252 FILLER_18_29
*253 FILLER_18_3
*254 FILLER_18_33
*255 FILLER_18_43
*256 FILLER_18_53
*257 FILLER_18_57
*258 FILLER_18_93
*259 FILLER_19_109
*260 FILLER_19_113
*261 FILLER_19_15
*262 FILLER_19_27
*263 FILLER_19_3
*264 FILLER_19_37
*265 FILLER_19_41
*266 FILLER_19_48
*267 FILLER_19_68
*268 FILLER_19_72
*269 FILLER_19_76
*270 FILLER_19_85
*271 FILLER_19_97
*272 FILLER_1_113
*273 FILLER_1_15
*274 FILLER_1_3
*275 FILLER_1_53
*276 FILLER_1_61
*277 FILLER_1_99
*278 FILLER_2_11
*279 FILLER_2_29
*280 FILLER_2_3
*281 FILLER_2_49
*282 FILLER_2_83
*283 FILLER_2_94
*284 FILLER_3_110
*285 FILLER_3_113
*286 FILLER_3_3
*287 FILLER_3_54
*288 FILLER_3_57
*289 FILLER_3_87
*290 FILLER_3_98
*291 FILLER_4_113
*292 FILLER_4_23
*293 FILLER_4_27
*294 FILLER_4_29
*295 FILLER_4_33
*296 FILLER_4_83
*297 FILLER_5_113
*298 FILLER_5_24
*299 FILLER_5_65
*300 FILLER_6_15
*301 FILLER_6_19
*302 FILLER_6_3
*303 FILLER_6_48
*304 FILLER_6_56
*305 FILLER_6_67
*306 FILLER_6_85
*307 FILLER_7_110
*308 FILLER_7_113
*309 FILLER_7_15
*310 FILLER_7_19
*311 FILLER_7_29
*312 FILLER_7_3
*313 FILLER_7_50
*314 FILLER_7_57
*315 FILLER_7_69
*316 FILLER_8_43
*317 FILLER_8_49
*318 FILLER_8_83
*319 FILLER_8_85
*320 FILLER_8_93
*321 FILLER_9_100
*322 FILLER_9_113
*323 FILLER_9_43
*324 FILLER_9_6
*325 FILLER_9_84
*326 FILLER_9_96
*327 PHY_EDGE_ROW_0_Left_20
*328 PHY_EDGE_ROW_0_Right_0
*329 PHY_EDGE_ROW_10_Left_30
*330 PHY_EDGE_ROW_10_Right_10
*331 PHY_EDGE_ROW_11_Left_31
*332 PHY_EDGE_ROW_11_Right_11
*333 PHY_EDGE_ROW_12_Left_32
*334 PHY_EDGE_ROW_12_Right_12
*335 PHY_EDGE_ROW_13_Left_33
*336 PHY_EDGE_ROW_13_Right_13
*337 PHY_EDGE_ROW_14_Left_34
*338 PHY_EDGE_ROW_14_Right_14
*339 PHY_EDGE_ROW_15_Left_35
*340 PHY_EDGE_ROW_15_Right_15
*341 PHY_EDGE_ROW_16_Left_36
*342 PHY_EDGE_ROW_16_Right_16
*343 PHY_EDGE_ROW_17_Left_37
*344 PHY_EDGE_ROW_17_Right_17
*345 PHY_EDGE_ROW_18_Left_38
*346 PHY_EDGE_ROW_18_Right_18
*347 PHY_EDGE_ROW_19_Left_39
*348 PHY_EDGE_ROW_19_Right_19
*349 PHY_EDGE_ROW_1_Left_21
*350 PHY_EDGE_ROW_1_Right_1
*351 PHY_EDGE_ROW_2_Left_22
*352 PHY_EDGE_ROW_2_Right_2
*353 PHY_EDGE_ROW_3_Left_23
*354 PHY_EDGE_ROW_3_Right_3
*355 PHY_EDGE_ROW_4_Left_24
*356 PHY_EDGE_ROW_4_Right_4
*357 PHY_EDGE_ROW_5_Left_25
*358 PHY_EDGE_ROW_5_Right_5
*359 PHY_EDGE_ROW_6_Left_26
*360 PHY_EDGE_ROW_6_Right_6
*361 PHY_EDGE_ROW_7_Left_27
*362 PHY_EDGE_ROW_7_Right_7
*363 PHY_EDGE_ROW_8_Left_28
*364 PHY_EDGE_ROW_8_Right_8
*365 PHY_EDGE_ROW_9_Left_29
*366 PHY_EDGE_ROW_9_Right_9
*367 TAP_TAPCELL_ROW_0_40
*368 TAP_TAPCELL_ROW_0_41
*369 TAP_TAPCELL_ROW_0_42
*370 TAP_TAPCELL_ROW_0_43
*371 TAP_TAPCELL_ROW_10_62
*372 TAP_TAPCELL_ROW_10_63
*373 TAP_TAPCELL_ROW_11_64
*374 TAP_TAPCELL_ROW_11_65
*375 TAP_TAPCELL_ROW_12_66
*376 TAP_TAPCELL_ROW_12_67
*377 TAP_TAPCELL_ROW_13_68
*378 TAP_TAPCELL_ROW_13_69
*379 TAP_TAPCELL_ROW_14_70
*380 TAP_TAPCELL_ROW_14_71
*381 TAP_TAPCELL_ROW_15_72
*382 TAP_TAPCELL_ROW_15_73
*383 TAP_TAPCELL_ROW_16_74
*384 TAP_TAPCELL_ROW_16_75
*385 TAP_TAPCELL_ROW_17_76
*386 TAP_TAPCELL_ROW_17_77
*387 TAP_TAPCELL_ROW_18_78
*388 TAP_TAPCELL_ROW_18_79
*389 TAP_TAPCELL_ROW_19_80
*390 TAP_TAPCELL_ROW_19_81
*391 TAP_TAPCELL_ROW_19_82
*392 TAP_TAPCELL_ROW_19_83
*393 TAP_TAPCELL_ROW_1_44
*394 TAP_TAPCELL_ROW_1_45
*395 TAP_TAPCELL_ROW_2_46
*396 TAP_TAPCELL_ROW_2_47
*397 TAP_TAPCELL_ROW_3_48
*398 TAP_TAPCELL_ROW_3_49
*399 TAP_TAPCELL_ROW_4_50
*400 TAP_TAPCELL_ROW_4_51
*401 TAP_TAPCELL_ROW_5_52
*402 TAP_TAPCELL_ROW_5_53
*403 TAP_TAPCELL_ROW_6_54
*404 TAP_TAPCELL_ROW_6_55
*405 TAP_TAPCELL_ROW_7_56
*406 TAP_TAPCELL_ROW_7_57
*407 TAP_TAPCELL_ROW_8_58
*408 TAP_TAPCELL_ROW_8_59
*409 TAP_TAPCELL_ROW_9_60
*410 TAP_TAPCELL_ROW_9_61
*411 _071_
*412 _072_
*413 _073_
*414 _074_
*415 _075_
*416 _076_
*417 _077_
*418 _078_
*419 _079_
*420 _080_
*421 _081_
*422 _082_
*423 _083_
*424 _084_
*425 _085_
*426 _086_
*427 _087_
*428 _088_
*429 _089_
*430 _090_
*431 _091_
*432 _092_
*433 _093_
*434 _094_
*435 _095_
*436 _096_
*437 _097_
*438 _098_
*439 _099_
*440 _100_
*441 _101_
*442 _102_
*443 _103_
*444 _104_
*445 _105_
*446 _106_
*447 _107_
*448 _108_
*449 _109_
*450 _110_
*451 _111_
*452 _112_
*453 _113_
*454 _114_
*455 _115_
*456 _116_
*457 _117_
*458 _118_
*459 _119_
*460 _120_
*461 _121_
*462 _122_
*463 _123_
*464 _124_
*465 _125_
*466 _126_
*467 _127_
*468 _128_
*469 _129_
*470 _130_
*471 _131_
*472 _132_
*473 _133_
*474 _134_
*475 _135_
*476 _136_
*477 _137_
*478 _138_
*479 _139_
*480 _140_
*481 _141_
*482 _142_
*483 _143_
*484 _144_
*485 _145_
*486 _146_
*487 _147_
*488 _148_
*489 _149_
*490 _150_
*491 _151_
*492 _152_
*493 _153_
*494 _154_
*495 _155_
*496 _156_
*497 _157_
*498 _158_
*499 _159_
*500 _160_
*501 _161_
*502 _162_
*503 _163_
*504 _164_
*505 _165_
*506 _166_
*507 _167_
*508 _168_
*509 _169_
*510 _170_
*511 _171_
*512 _172_
*513 _173_
*514 clkbuf_0_clkin
*515 clkbuf_2_0__f_clkin
*516 clkbuf_2_1__f_clkin
*517 clkbuf_2_2__f_clkin
*518 clkbuf_2_3__f_clkin
*519 clkload0
*520 clkload1
*521 clkload2
*522 fanout22
*523 fanout23
*524 fanout24
*525 fanout25
*526 fanout26
*527 fanout27
*528 hold1
*529 hold10
*530 hold11
*531 hold12
*532 hold13
*533 hold14
*534 hold15
*535 hold16
*536 hold17
*537 hold18
*538 hold19
*539 hold2
*540 hold20
*541 hold21
*542 hold22
*543 hold23
*544 hold24
*545 hold25
*546 hold26
*547 hold27
*548 hold28
*549 hold29
*550 hold3
*551 hold30
*552 hold31
*553 hold4
*554 hold5
*555 hold6
*556 hold7
*557 hold8
*558 hold9
*559 input1
*560 input10
*561 input11
*562 input12
*563 input2
*564 input3
*565 input4
*566 input5
*567 input6
*568 input7
*569 input8
*570 input9
*571 output13
*572 output14
*573 output15
*574 output16
*575 output17
*576 output18
*577 output19
*578 output20
*579 output21

*PORTS
clkin I
data_in[0] I
data_in[1] I
data_in[2] I
data_in[3] I
data_in[4] I
data_in[5] I
data_in[6] I
data_in[7] I
data_out[0] O
data_out[1] O
data_out[2] O
data_out[3] O
data_out[4] O
data_out[5] O
data_out[6] O
data_out[7] O
reset I
sclk I
sdi I
sdo O
slave_select_in I

*D_NET *3 0.00735983
*CONN
*P clkin I
*I *514:A I *D sky130_fd_sc_hd__clkbuf_16
*CAP
1 clkin 0.00127887
2 *514:A 0.00196028
3 *3:11 0.00323915
4 *514:A *425:B1 6.87243e-05
5 *514:A *549:A 0.000119692
6 *514:A *86:24 2.64616e-05
7 *514:A *87:20 0.000115808
8 *514:A *99:42 5.41385e-05
9 *514:A *106:10 8.23486e-05
10 *514:A *163:6 5.0155e-05
11 *514:A *163:16 7.56272e-05
12 *3:11 *453:B2 0
13 *3:11 *559:A 0.000105399
14 *3:11 *564:A 0.000183171
15 *3:11 *571:A 0
16 *3:11 *7:13 0
17 *3:11 *12:10 0
18 *3:11 *59:30 0
19 *3:11 *172:8 0
*RES
1 clkin *3:11 45.1216 
2 *3:11 *514:A 49.8457 
*END

*D_NET *4 0.00063639
*CONN
*P data_in[0] I
*I *559:A I *D sky130_fd_sc_hd__clkbuf_1
*CAP
1 data_in[0] 0.000230549
2 *559:A 0.000230549
3 *559:A data_out[0] 3.49463e-05
4 *559:A *561:A 0
5 *559:A *563:A 3.49463e-05
6 *559:A *564:A 0
7 *559:A *99:42 0
8 *3:11 *559:A 0.000105399
*RES
1 data_in[0] *559:A 48.1354 
*END

*D_NET *5 0.000547262
*CONN
*P data_in[1] I
*I *563:A I *D sky130_fd_sc_hd__clkbuf_1
*CAP
1 data_in[1] 0.000239874
2 *563:A 0.000239874
3 *563:A *564:A 3.25681e-05
4 *559:A *563:A 3.49463e-05
*RES
1 data_in[1] *563:A 49.1767 
*END

*D_NET *6 0.000833743
*CONN
*P data_in[2] I
*I *564:A I *D sky130_fd_sc_hd__clkbuf_1
*CAP
1 data_in[2] 0.000291529
2 *564:A 0.000291529
3 *564:A *453:B2 0
4 *564:A *7:13 3.49463e-05
5 *559:A *564:A 0
6 *563:A *564:A 3.25681e-05
7 *3:11 *564:A 0.000183171
*RES
1 data_in[2] *564:A 49.1918 
*END

*D_NET *7 0.000692105
*CONN
*P data_in[3] I
*I *565:A I *D sky130_fd_sc_hd__clkbuf_1
*CAP
1 data_in[3] 0.000328579
2 *565:A 0
3 *7:13 0.000328579
4 *564:A *7:13 3.49463e-05
5 *3:11 *7:13 0
*RES
1 data_in[3] *7:13 27.9375 
2 *7:13 *565:A 23 
*END

*D_NET *8 0.00100447
*CONN
*P data_in[4] I
*I *566:A I *D sky130_fd_sc_hd__clkbuf_1
*CAP
1 data_in[4] 0.000502235
2 *566:A 0.000502235
3 *566:A *567:A 0
*RES
1 data_in[4] *566:A 48.9786 
*END

*D_NET *9 0.00100333
*CONN
*P data_in[5] I
*I *567:A I *D sky130_fd_sc_hd__clkbuf_1
*CAP
1 data_in[5] 0.000501664
2 *567:A 0.000501664
3 *566:A *567:A 0
*RES
1 data_in[5] *567:A 48.9786 
*END

*D_NET *10 0.00139541
*CONN
*P data_in[6] I
*I *568:A I *D sky130_fd_sc_hd__clkbuf_1
*CAP
1 data_in[6] 0.000655375
2 *568:A 0
3 *10:11 0.000655375
4 *10:11 *159:8 8.46575e-05
*RES
1 data_in[6] *10:11 28.9821 
2 *10:11 *568:A 23 
*END

*D_NET *11 0.00091871
*CONN
*P data_in[7] I
*I *569:A I *D sky130_fd_sc_hd__clkbuf_1
*CAP
1 data_in[7] 0.000459355
2 *569:A 0.000459355
3 *569:A sdo 0
4 *569:A *117:8 0
*RES
1 data_in[7] *569:A 48.0257 
*END

*D_NET *12 0.000742537
*CONN
*P data_out[0] O
*I *571:X O *D sky130_fd_sc_hd__buf_2
*CAP
1 data_out[0] 5.25196e-05
2 *571:X 0.000283803
3 *12:10 0.000336322
4 data_out[0] *561:A 3.49463e-05
5 *559:A data_out[0] 3.49463e-05
6 *3:11 *12:10 0
*RES
1 *571:X *12:10 42.0289 
2 *12:10 data_out[0] 8.32853 
*END

*D_NET *13 0.00194382
*CONN
*P data_out[1] O
*I *572:X O *D sky130_fd_sc_hd__buf_2
*CAP
1 data_out[1] 0.000507176
2 *572:X 0.000176886
3 *13:8 0.000684062
4 data_out[1] data_out[3] 0
5 data_out[1] *493:RESET_B 0.000218962
6 data_out[1] *15:10 0
7 data_out[1] *131:10 0
8 *13:8 *87:58 0.00035673
*RES
1 *572:X *13:8 41.9564 
2 *13:8 data_out[1] 11.165 
*END

*D_NET *14 0.000766038
*CONN
*P data_out[2] O
*I *573:X O *D sky130_fd_sc_hd__buf_2
*CAP
1 data_out[2] 9.40689e-05
2 *573:X 0.00028895
3 *14:14 0.000383019
*RES
1 *573:X *14:14 49.9 
2 *14:14 data_out[2] 0.382667 
*END

*D_NET *15 0.00158417
*CONN
*P data_out[3] O
*I *574:X O *D sky130_fd_sc_hd__buf_2
*CAP
1 data_out[3] 0.000120558
2 *574:X 0.000611408
3 *15:10 0.000731965
4 *15:10 *493:CLK 0
5 *15:10 *493:RESET_B 5.02805e-05
6 *15:10 *574:A 6.99589e-05
7 data_out[1] data_out[3] 0
8 data_out[1] *15:10 0
*RES
1 *574:X *15:10 49.7968 
2 *15:10 data_out[3] 2.80679 
*END

*D_NET *16 0.00107773
*CONN
*P data_out[4] O
*I *575:X O *D sky130_fd_sc_hd__buf_2
*CAP
1 data_out[4] 0.000538867
2 *575:X 0.000538867
*RES
1 *575:X data_out[4] 48.0464 
*END

*D_NET *17 0.00167352
*CONN
*P data_out[5] O
*I *576:X O *D sky130_fd_sc_hd__buf_2
*CAP
1 data_out[5] 0.000377599
2 *576:X 0.000257757
3 *17:8 0.000635357
4 *17:8 *527:A 0.000402806
*RES
1 *576:X *17:8 42.4329 
2 *17:8 data_out[5] 7.99571 
*END

*D_NET *18 0.0019575
*CONN
*P data_out[6] O
*I *577:X O *D sky130_fd_sc_hd__buf_2
*CAP
1 data_out[6] 0.000595986
2 *577:X 0.000227968
3 *18:8 0.000823954
4 data_out[6] *20:11 8.06147e-05
5 *18:8 *511:RESET_B 0
6 *18:8 *37:8 0.000176869
7 *18:8 *113:12 0
8 *18:8 *120:43 0
9 *18:8 *132:10 0
10 *18:8 *133:10 5.21127e-05
*RES
1 *577:X *18:8 42.5468 
2 *18:8 data_out[6] 9.96 
*END

*D_NET *19 0.0027309
*CONN
*P data_out[7] O
*I *578:X O *D sky130_fd_sc_hd__buf_2
*CAP
1 data_out[7] 0.000727619
2 *578:X 0
3 *19:6 0.000727619
4 data_out[7] *578:A 0.000393688
5 data_out[7] *21:13 0.000109032
6 data_out[7] *87:95 9.0236e-05
7 data_out[7] *116:10 8.26569e-05
8 data_out[7] *161:10 0.000600052
*RES
1 *578:X *19:6 38 
2 *19:6 data_out[7] 24.9167 
*END

*D_NET *20 0.00201851
*CONN
*P reset I
*I *570:A I *D sky130_fd_sc_hd__clkbuf_1
*CAP
1 reset 0.000719036
2 *570:A 0
3 *20:11 0.000719036
4 *20:11 *161:10 0.000499821
5 *20:11 *170:10 0
6 data_out[6] *20:11 8.06147e-05
*RES
1 reset *20:11 37.4604 
2 *20:11 *570:A 23 
*END

*D_NET *21 0.00150896
*CONN
*P sclk I
*I *560:A I *D sky130_fd_sc_hd__buf_1
*CAP
1 sclk 0.000523364
2 *560:A 0
3 *21:13 0.000523364
4 *21:13 *562:A 8.06147e-05
5 *21:13 *122:47 0
6 *21:13 *124:10 0.000182111
7 *21:13 *170:10 9.04758e-05
8 data_out[7] *21:13 0.000109032
*RES
1 sclk *21:13 29.5863 
2 *21:13 *560:A 23 
*END

*D_NET *22 0.000739108
*CONN
*P sdi I
*I *561:A I *D sky130_fd_sc_hd__clkbuf_1
*CAP
1 sdi 0.000352081
2 *561:A 0.000352081
3 *561:A *571:A 0
4 *561:A *108:10 0
5 data_out[0] *561:A 3.49463e-05
6 *559:A *561:A 0
*RES
1 sdi *561:A 49.5439 
*END

*D_NET *23 0.000940487
*CONN
*P sdo O
*I *579:X O *D sky130_fd_sc_hd__buf_2
*CAP
1 sdo 0.000470243
2 *579:X 0.000470243
3 *569:A sdo 0
*RES
1 *579:X sdo 48.2743 
*END

*D_NET *24 0.000603555
*CONN
*P slave_select_in I
*I *562:A I *D sky130_fd_sc_hd__buf_2
*CAP
1 slave_select_in 0.00026147
2 *562:A 0.00026147
3 *21:13 *562:A 8.06147e-05
*RES
1 slave_select_in *562:A 48.4875 
*END

*D_NET *25 0.00186126
*CONN
*I *486:D I *D sky130_fd_sc_hd__dfstp_1
*I *422:X O *D sky130_fd_sc_hd__a31o_1
*CAP
1 *486:D 0.000462561
2 *422:X 6.09944e-05
3 *25:8 0.000523556
4 *486:D *448:B1 0.000306338
5 *486:D *85:14 0.000180224
6 *486:D *171:27 5.3304e-05
7 *25:8 *450:A_N 0.000138727
8 *25:8 *107:69 0.000135557
*RES
1 *422:X *25:8 39.9057 
2 *25:8 *486:D 46.7207 
*END

*D_NET *26 0.00167544
*CONN
*I *487:D I *D sky130_fd_sc_hd__dfrtp_2
*I *425:Y O *D sky130_fd_sc_hd__o21ai_1
*CAP
1 *487:D 0.000423622
2 *425:Y 0.000203847
3 *26:8 0.000627469
4 *487:D *449:B2 5.70007e-05
5 *26:8 *446:B 0.000107641
6 *26:8 *27:8 3.46181e-05
7 *26:8 *56:10 0.000139647
8 *26:8 *86:24 0
9 *26:8 *123:22 8.15957e-05
*RES
1 *425:Y *26:8 43.075 
2 *26:8 *487:D 45.2914 
*END

*D_NET *27 0.000760931
*CONN
*I *488:D I *D sky130_fd_sc_hd__dfrtp_4
*I *417:X O *D sky130_fd_sc_hd__o21ba_1
*CAP
1 *488:D 9.02848e-05
2 *417:X 0.000196791
3 *27:8 0.000287075
4 *27:8 *86:24 0.000138727
5 *27:8 *87:10 1.34354e-05
6 *27:8 *123:22 0
7 *27:8 *164:40 0
8 *26:8 *27:8 3.46181e-05
*RES
1 *417:X *27:8 42.0186 
2 *27:8 *488:D 39.1652 
*END

*D_NET *28 0.00104097
*CONN
*I *483:D I *D sky130_fd_sc_hd__dfstp_1
*I *431:X O *D sky130_fd_sc_hd__a221o_1
*CAP
1 *483:D 2.83571e-05
2 *431:X 0.000246321
3 *28:8 0.000274678
4 *483:D *483:CLK 2.64616e-05
5 *483:D *121:35 1.94812e-05
6 *28:8 *426:A1 6.6869e-05
7 *28:8 *483:CLK 9.85378e-05
8 *28:8 *100:51 0.000187986
9 *28:8 *101:30 2.54046e-05
10 *28:8 *121:29 2.60152e-05
11 *28:8 *181:68 0
12 *28:8 *181:77 4.08537e-05
*RES
1 *431:X *28:8 42.7229 
2 *28:8 *483:D 38.6214 
*END

*D_NET *29 0.000946013
*CONN
*I *484:D I *D sky130_fd_sc_hd__dfstp_1
*I *434:X O *D sky130_fd_sc_hd__a221o_1
*CAP
1 *484:D 0
2 *434:X 0.000269535
3 *29:10 0.000269535
4 *29:10 *414:C 0.000218476
5 *29:10 *91:49 3.96053e-05
6 *29:10 *92:50 1.01436e-05
7 *29:10 *94:10 0.000138718
*RES
1 *434:X *29:10 42.4329 
2 *29:10 *484:D 38 
*END

*D_NET *30 0.000532726
*CONN
*I *485:D I *D sky130_fd_sc_hd__dfstp_1
*I *437:X O *D sky130_fd_sc_hd__a221o_1
*CAP
1 *485:D 0
2 *437:X 0.000218694
3 *30:10 0.000218694
4 *30:10 *414:C 9.24795e-06
5 *30:10 *434:C1 5.67058e-05
6 *30:10 *485:CLK 0
7 *30:10 *92:33 1.43168e-05
8 *30:10 *92:50 1.50677e-05
9 *30:10 *122:47 0
10 *30:10 *122:54 0
*RES
1 *437:X *30:10 41.48 
2 *30:10 *485:D 38 
*END

*D_NET *31 0.000820388
*CONN
*I *534:A I *D sky130_fd_sc_hd__dlygate4sd3_1
*I *438:X O *D sky130_fd_sc_hd__mux2_1
*CAP
1 *534:A 0
2 *438:X 0.000383287
3 *31:8 0.000383287
4 *31:8 *163:16 5.38135e-05
*RES
1 *438:X *31:8 29.8357 
2 *31:8 *534:A 23 
*END

*D_NET *32 0.00143989
*CONN
*I *532:A I *D sky130_fd_sc_hd__dlygate4sd3_1
*I *439:X O *D sky130_fd_sc_hd__mux2_1
*CAP
1 *532:A 0
2 *439:X 0.000409856
3 *32:8 0.000409856
4 *32:8 *34:12 0.000620179
*RES
1 *439:X *32:8 32.2179 
2 *32:8 *532:A 23 
*END

*D_NET *33 0.00135201
*CONN
*I *530:A I *D sky130_fd_sc_hd__dlygate4sd3_1
*I *440:X O *D sky130_fd_sc_hd__mux2_1
*CAP
1 *530:A 0
2 *440:X 0.000353756
3 *33:12 0.000353756
4 *33:12 *472:A0 9.8203e-05
5 *33:12 *472:A1 0.000139346
6 *33:12 *49:10 9.80703e-06
7 *33:12 *68:64 8.76184e-05
8 *33:12 *68:68 0.0001165
9 *33:12 *71:10 3.11916e-05
10 *33:12 *87:20 1.63351e-05
11 *33:12 *87:120 0.000105934
12 *33:12 *97:49 2.24366e-06
13 *33:12 *97:62 3.73151e-05
*RES
1 *440:X *33:12 46.6171 
2 *33:12 *530:A 38 
*END

*D_NET *34 0.0025073
*CONN
*I *536:A I *D sky130_fd_sc_hd__dlygate4sd3_1
*I *441:X O *D sky130_fd_sc_hd__mux2_1
*CAP
1 *536:A 0.000157079
2 *441:X 0.000348725
3 *34:12 0.000505805
4 *34:12 *87:28 0.000191255
5 *34:12 *87:35 0.000139692
6 *34:12 *109:21 0.000509252
7 *34:12 *138:10 3.53115e-05
8 *32:8 *34:12 0.000620179
*RES
1 *441:X *34:12 49.745 
2 *34:12 *536:A 40.9621 
*END

*D_NET *35 0.000589533
*CONN
*I *556:A I *D sky130_fd_sc_hd__dlygate4sd3_1
*I *442:X O *D sky130_fd_sc_hd__mux2_1
*CAP
1 *556:A 0
2 *442:X 0.000239816
3 *35:10 0.000239816
4 *35:10 *87:58 0.0001099
5 *35:10 *112:12 0
6 *35:10 *131:10 0
*RES
1 *442:X *35:10 41.9564 
2 *35:10 *556:A 38 
*END

*D_NET *36 0.000992207
*CONN
*I *554:A I *D sky130_fd_sc_hd__dlygate4sd3_1
*I *443:X O *D sky130_fd_sc_hd__mux2_1
*CAP
1 *554:A 0.000111556
2 *443:X 0.000283488
3 *36:8 0.000395044
4 *554:A *527:A 0.000156058
5 *554:A *129:10 6.17437e-06
6 *36:8 *113:12 0
7 *36:8 *120:43 0
8 *36:8 *123:8 0
9 *36:8 *128:8 0
10 *36:8 *129:10 3.98859e-05
11 *36:8 *167:25 0
*RES
1 *443:X *36:8 42.7229 
2 *36:8 *554:A 41.0036 
*END

*D_NET *37 0.000970557
*CONN
*I *558:A I *D sky130_fd_sc_hd__dlygate4sd3_1
*I *444:X O *D sky130_fd_sc_hd__mux2_1
*CAP
1 *558:A 0.000149375
2 *444:X 0.000247469
3 *37:8 0.000396844
4 *37:8 *511:RESET_B 0
5 *37:8 *122:14 0
6 *37:8 *132:10 0
7 *18:8 *37:8 0.000176869
*RES
1 *444:X *37:8 42.7229 
2 *37:8 *558:A 40.5271 
*END

*D_NET *38 0.00107926
*CONN
*I *497:D I *D sky130_fd_sc_hd__dfrtp_1
*I *445:X O *D sky130_fd_sc_hd__mux2_1
*CAP
1 *497:D 0.000113773
2 *445:X 0.000178495
3 *38:8 0.000292268
4 *497:D *497:RESET_B 9.98797e-05
5 *497:D *76:10 7.53384e-06
6 *497:D *122:36 2.93747e-05
7 *38:8 *122:40 0
8 *38:8 *122:47 0
9 *38:8 *127:8 0.000357939
*RES
1 *445:X *38:8 42.7229 
2 *38:8 *497:D 40.5271 
*END

*D_NET *39 0.00116775
*CONN
*I *498:D I *D sky130_fd_sc_hd__dfrtp_1
*I *449:X O *D sky130_fd_sc_hd__a32o_1
*CAP
1 *498:D 0
2 *449:X 0.000217167
3 *39:6 0.000217167
4 *39:6 *498:CLK 7.24365e-05
5 *39:6 *99:25 0.000100488
6 *39:6 *104:16 0.000537459
7 *39:6 *171:10 2.30292e-05
*RES
1 *449:X *39:6 31.2443 
2 *39:6 *498:D 23 
*END

*D_NET *40 0.000939823
*CONN
*I *499:D I *D sky130_fd_sc_hd__dfrtp_1
*I *452:X O *D sky130_fd_sc_hd__mux2_1
*CAP
1 *499:D 0
2 *452:X 0.000293933
3 *40:10 0.000293933
4 *40:10 *449:A3 0
5 *40:10 *449:B1 0
6 *40:10 *59:18 5.50106e-05
7 *40:10 *60:10 0.000296947
8 *40:10 *99:8 0
9 *40:10 *99:10 0
*RES
1 *452:X *40:10 44.0486 
2 *40:10 *499:D 38 
*END

*D_NET *41 0.000856456
*CONN
*I *500:D I *D sky130_fd_sc_hd__dfrtp_1
*I *454:X O *D sky130_fd_sc_hd__mux2_1
*CAP
1 *500:D 0.000274096
2 *454:X 8.26026e-05
3 *41:8 0.000356698
4 *500:D *500:CLK 0.000143059
5 *41:8 *500:RESET_B 0
*RES
1 *454:X *41:8 39.2014 
2 *41:8 *500:D 42.4536 
*END

*D_NET *42 0.000584502
*CONN
*I *501:D I *D sky130_fd_sc_hd__dfrtp_1
*I *456:X O *D sky130_fd_sc_hd__mux2_1
*CAP
1 *501:D 0
2 *456:X 0.000292251
3 *42:10 0.000292251
4 *42:10 *456:A0 0
*RES
1 *456:X *42:10 42.0807 
2 *42:10 *501:D 38 
*END

*D_NET *43 0.000949546
*CONN
*I *502:D I *D sky130_fd_sc_hd__dfrtp_1
*I *458:X O *D sky130_fd_sc_hd__mux2_1
*CAP
1 *502:D 0
2 *458:X 0.000307231
3 *43:10 0.000307231
4 *43:10 *58:22 3.42479e-05
5 *43:10 *58:33 0.000106527
6 *43:10 *174:25 0.000194309
*RES
1 *458:X *43:10 44.525 
2 *43:10 *502:D 38 
*END

*D_NET *44 0.000862037
*CONN
*I *503:D I *D sky130_fd_sc_hd__dfrtp_1
*I *460:X O *D sky130_fd_sc_hd__mux2_1
*CAP
1 *503:D 3.12444e-05
2 *460:X 0.000224116
3 *44:10 0.00025536
4 *503:D *501:RESET_B 5.3304e-05
5 *44:10 *458:A1 0.000187091
6 *44:10 *63:10 0.000110922
*RES
1 *460:X *44:10 41.6043 
2 *44:10 *503:D 38.6214 
*END

*D_NET *45 0.000970732
*CONN
*I *504:D I *D sky130_fd_sc_hd__dfrtp_1
*I *462:X O *D sky130_fd_sc_hd__mux2_1
*CAP
1 *504:D 0
2 *462:X 0.00030015
3 *45:10 0.00030015
4 *45:10 *58:14 3.71369e-05
5 *45:10 *64:10 0
6 *45:10 *123:22 0
7 *45:10 *176:12 0.000333296
*RES
1 *462:X *45:10 44.525 
2 *45:10 *504:D 38 
*END

*D_NET *46 0.000331623
*CONN
*I *505:D I *D sky130_fd_sc_hd__dfrtp_1
*I *464:X O *D sky130_fd_sc_hd__mux2_1
*CAP
1 *505:D 0
2 *464:X 0.000113025
3 *46:10 0.000113025
4 *46:10 *505:CLK 1.01436e-05
5 *46:10 *58:10 3.56433e-05
6 *46:10 *65:8 3.04021e-05
7 *46:10 *150:10 2.93845e-05
*RES
1 *464:X *46:10 40.175 
2 *46:10 *505:D 38 
*END

*D_NET *47 0.000875697
*CONN
*I *506:D I *D sky130_fd_sc_hd__dfrtp_1
*I *468:X O *D sky130_fd_sc_hd__mux2_1
*CAP
1 *506:D 0
2 *468:X 0.000251132
3 *47:10 0.000251132
4 *47:10 *490:CLK 0.00019654
5 *47:10 *69:10 0
6 *47:10 *87:126 0.000176893
7 *47:10 *106:10 0
*RES
1 *468:X *47:10 43.8207 
2 *47:10 *506:D 38 
*END

*D_NET *48 0.00034208
*CONN
*I *507:D I *D sky130_fd_sc_hd__dfrtp_1
*I *470:X O *D sky130_fd_sc_hd__mux2_1
*CAP
1 *507:D 1.36998e-05
2 *470:X 7.80342e-05
3 *48:8 9.1734e-05
4 *507:D *468:A1 5.56279e-05
5 *507:D *507:CLK 3.22051e-05
6 *48:8 *87:20 5.02859e-05
7 *48:8 *155:14 2.04934e-05
*RES
1 *470:X *48:8 39.5536 
2 *48:8 *507:D 38.6214 
*END

*D_NET *49 0.00132233
*CONN
*I *508:D I *D sky130_fd_sc_hd__dfrtp_1
*I *472:X O *D sky130_fd_sc_hd__mux2_1
*CAP
1 *508:D 0
2 *472:X 0.000319354
3 *49:10 0.000319354
4 *49:10 *68:68 4.67811e-05
5 *49:10 *87:28 0.000379403
6 *49:10 *87:120 5.3304e-05
7 *49:10 *118:16 0.000194327
8 *33:12 *49:10 9.80703e-06
*RES
1 *472:X *49:10 45.1257 
2 *49:10 *508:D 38 
*END

*D_NET *50 0.000844719
*CONN
*I *509:D I *D sky130_fd_sc_hd__dfrtp_1
*I *474:X O *D sky130_fd_sc_hd__mux2_1
*CAP
1 *509:D 4.47995e-05
2 *474:X 0.000194912
3 *50:8 0.000239712
4 *509:D *68:64 1.59094e-05
5 *50:8 *164:22 0.000349386
*RES
1 *474:X *50:8 42.7229 
2 *50:8 *509:D 38.6214 
*END

*D_NET *51 0.000295912
*CONN
*I *510:D I *D sky130_fd_sc_hd__dfrtp_1
*I *476:X O *D sky130_fd_sc_hd__mux2_1
*CAP
1 *510:D 0
2 *476:X 0.000131812
3 *51:10 0.000131812
4 *51:10 *73:6 3.22879e-05
5 *51:10 *153:10 0
6 *51:10 *166:10 0
*RES
1 *476:X *51:10 40.175 
2 *51:10 *510:D 38 
*END

*D_NET *52 0.000691258
*CONN
*I *511:D I *D sky130_fd_sc_hd__dfrtp_1
*I *478:X O *D sky130_fd_sc_hd__mux2_1
*CAP
1 *511:D 6.08559e-05
2 *478:X 7.04359e-05
3 *52:8 0.000131292
4 *511:D *68:39 6.6978e-05
5 *511:D *98:29 0.000102093
6 *52:8 *547:A 1.14452e-05
7 *52:8 *120:69 8.16356e-05
8 *52:8 *167:10 0.000166522
*RES
1 *478:X *52:8 40.2579 
2 *52:8 *511:D 40.0507 
*END

*D_NET *53 0.000475999
*CONN
*I *512:D I *D sky130_fd_sc_hd__dfrtp_1
*I *480:X O *D sky130_fd_sc_hd__mux2_1
*CAP
1 *512:D 0
2 *480:X 9.13419e-05
3 *53:10 9.13419e-05
4 *53:10 *480:S 1.01436e-05
5 *53:10 *511:RESET_B 5.50049e-05
6 *53:10 *68:14 0.000114083
7 *53:10 *168:19 0.000114083
*RES
1 *480:X *53:10 40.175 
2 *53:10 *512:D 38 
*END

*D_NET *54 0.000297663
*CONN
*I *513:D I *D sky130_fd_sc_hd__dfrtp_1
*I *482:X O *D sky130_fd_sc_hd__mux2_1
*CAP
1 *513:D 0
2 *482:X 0.000139091
3 *54:10 0.000139091
4 *54:10 *482:S 1.94812e-05
5 *54:10 *68:12 0
6 *54:10 *76:10 0
*RES
1 *482:X *54:10 40.175 
2 *54:10 *513:D 38 
*END

*D_NET *55 0.00135699
*CONN
*I *437:B2 I *D sky130_fd_sc_hd__a221o_1
*I *436:Y O *D sky130_fd_sc_hd__nand3_1
*CAP
1 *437:B2 1.4108e-05
2 *436:Y 0.000452134
3 *55:12 0.000466242
4 *437:B2 *434:C1 2.85479e-05
5 *437:B2 *103:23 1.43168e-05
6 *55:12 *436:B 3.91386e-05
7 *55:12 *436:C 0.000225891
8 *55:12 *437:B1 1.14452e-05
9 *55:12 *107:124 0.000105165
10 *55:12 *122:47 0
11 *55:12 *122:54 0
*RES
1 *436:Y *55:12 48.2743 
2 *55:12 *437:B2 38.3314 
*END

*D_NET *56 0.00443576
*CONN
*I *466:C I *D sky130_fd_sc_hd__or4_4
*I *447:B I *D sky130_fd_sc_hd__nor2_1
*I *448:B1 I *D sky130_fd_sc_hd__a311o_4
*I *446:Y O *D sky130_fd_sc_hd__nor2_1
*CAP
1 *466:C 0.000610747
2 *447:B 8.53711e-05
3 *448:B1 0.000334938
4 *446:Y 0
5 *56:10 0.000709298
6 *56:4 0.000899737
7 *447:B *422:A2 6.28695e-05
8 *447:B *123:22 9.27917e-05
9 *448:B1 *448:C1 9.84851e-05
10 *448:B1 *77:14 2.18409e-05
11 *448:B1 *83:10 0.000180224
12 *448:B1 *85:14 3.33223e-05
13 *448:B1 *107:69 9.67842e-05
14 *448:B1 *180:29 0
15 *466:C *416:A2 0.00020847
16 *466:C *416:B1_N 1.54424e-05
17 *466:C *417:A2 1.32939e-05
18 *466:C *446:A 0.000180194
19 *56:10 *422:A2 1.4471e-05
20 *56:10 *446:A 5.12254e-05
21 *56:10 *446:B 7.38527e-05
22 *56:10 *123:22 0.000206416
23 *486:D *448:B1 0.000306338
24 *26:8 *56:10 0.000139647
*RES
1 *446:Y *56:4 23 
2 *56:4 *56:10 22.0014 
3 *56:10 *448:B1 45.3121 
4 *56:10 *447:B 40.61 
5 *56:4 *466:C 31.9589 
*END

*D_NET *57 0.00261506
*CONN
*I *449:A3 I *D sky130_fd_sc_hd__a32o_1
*I *447:Y O *D sky130_fd_sc_hd__nor2_1
*CAP
1 *449:A3 0.000245801
2 *447:Y 0.000618029
3 *57:8 0.00086383
4 *449:A3 *449:B1 8.68081e-05
5 *449:A3 *490:CLK 0
6 *449:A3 *84:110 0.000165593
7 *449:A3 *99:10 0
8 *449:A3 *99:64 0
9 *57:8 *96:44 4.2062e-05
10 *57:8 *119:42 0.000395135
11 *57:8 *125:10 5.3304e-05
12 *57:8 *171:27 0.000144501
13 *40:10 *449:A3 0
*RES
1 *447:Y *57:8 49.1029 
2 *57:8 *449:A3 43.075 
*END

*D_NET *58 0.010585
*CONN
*I *464:S I *D sky130_fd_sc_hd__mux2_1
*I *462:S I *D sky130_fd_sc_hd__mux2_1
*I *460:S I *D sky130_fd_sc_hd__mux2_1
*I *458:S I *D sky130_fd_sc_hd__mux2_1
*I *452:S I *D sky130_fd_sc_hd__mux2_1
*I *449:B1 I *D sky130_fd_sc_hd__a32o_1
*I *454:S I *D sky130_fd_sc_hd__mux2_1
*I *456:S I *D sky130_fd_sc_hd__mux2_1
*I *448:X O *D sky130_fd_sc_hd__a311o_4
*CAP
1 *464:S 7.51937e-05
2 *462:S 0
3 *460:S 0
4 *458:S 0
5 *452:S 0.000248371
6 *449:B1 0.000394191
7 *454:S 0.000176471
8 *456:S 0.000158836
9 *448:X 0
10 *58:48 0.000735749
11 *58:33 0.000555159
12 *58:22 0.00070848
13 *58:20 0.000552138
14 *58:14 0.000647243
15 *58:12 0.000436399
16 *58:10 0.00105591
17 *58:6 0.000903569
18 *449:B1 *84:78 1.62015e-05
19 *449:B1 *84:102 0.00037403
20 *449:B1 *84:110 0.000163352
21 *449:B1 *99:64 0
22 *449:B1 *99:82 0
23 *449:B1 *171:10 2.55176e-05
24 *449:B1 *174:25 3.70094e-05
25 *452:S *59:18 6.9805e-05
26 *452:S *84:78 0.000443673
27 *454:S *454:A1 0.00010018
28 *454:S *455:B2 0.000317553
29 *454:S *500:RESET_B 0
30 *464:S *150:10 0.000172996
31 *58:10 *422:B1 0
32 *58:10 *426:A2 0
33 *58:10 *505:CLK 0
34 *58:10 *505:RESET_B 0
35 *58:10 *518:A 0
36 *58:10 *521:A 0
37 *58:10 *544:A 0
38 *58:10 *65:8 0
39 *58:10 *77:14 0
40 *58:10 *83:10 0
41 *58:10 *84:14 0.000273623
42 *58:10 *84:23 0
43 *58:10 *84:44 0
44 *58:10 *100:19 0
45 *58:10 *121:121 0
46 *58:12 *150:10 0.000172197
47 *58:14 *462:A0 5.3304e-05
48 *58:14 *150:10 6.71014e-05
49 *58:20 *458:A1 0.000229793
50 *58:22 *458:A0 5.50049e-05
51 *58:22 *458:A1 4.03448e-05
52 *58:33 *456:A0 0
53 *58:33 *63:10 0
54 *58:33 *173:10 0.000141869
55 *58:33 *174:12 0.000303278
56 *58:33 *174:25 0.000396462
57 *58:48 *174:25 0.000183581
58 *449:A3 *449:B1 8.68081e-05
59 *40:10 *449:B1 0
60 *43:10 *58:22 3.42479e-05
61 *43:10 *58:33 0.000106527
62 *45:10 *58:14 3.71369e-05
63 *46:10 *58:10 3.56433e-05
*RES
1 *448:X *58:6 38 
2 *58:6 *58:10 32.0479 
3 *58:10 *58:12 2.05071 
4 *58:12 *58:14 6.815 