*SPEF "ieee 1481-1999"
*DESIGN "Slave"
*DATE "23:53:52 Thursday June 11, 2026"
*VENDOR "The OpenROAD Project"
*PROGRAM "OpenROAD"
*VERSION "edf00dff99f6c40d67a30c0e22a8191c5d2ed9d6"
*DESIGN_FLOW "NAME_SCOPE LOCAL" "PIN_CAP NONE"
*DIVIDER /
*DELIMITER :
*BUS_DELIMITER []
*T_UNIT 1 NS
*C_UNIT 1 PF
*R_UNIT 1 OHM
*L_UNIT 1 HENRY

*NAME_MAP
*3 clkin
*4 data_in[0]
*5 data_in[1]
*6 data_in[2]
*7 data_in[3]
*8 data_in[4]
*9 data_in[5]
*10 data_in[6]
*11 data_in[7]
*12 data_out[0]
*13 data_out[1]
*14 data_out[2]
*15 data_out[3]
*16 data_out[4]
*17 data_out[5]
*18 data_out[6]
*19 data_out[7]
*20 reset
*21 sclk
*22 sdi
*23 sdo
*24 slave_select_in
*25 _000_
*26 _001_
*27 _002_
*28 _003_
*29 _004_
*30 _005_
*31 _006_
*32 _007_
*33 _008_
*34 _009_
*35 _010_
*36 _011_
*37 _012_
*38 _013_
*39 _014_
*40 _015_
*41 _016_
*42 _017_
*43 _018_
*44 _019_
*45 _020_
*46 _021_
*47 _022_
*48 _023_
*49 _024_
*50 _025_
*51 _026_
*52 _027_
*53 _028_
*54 _029_
*55 _030_
*56 _031_
*57 _032_
*58 _033_
*59 _034_
*60 _035_
*61 _036_
*62 _037_
*63 _038_
*64 _039_
*65 _040_
*66 _041_
*67 _042_
*68 _043_
*69 _044_
*70 _045_
*71 _046_
*72 _047_
*73 _048_
*74 _049_
*75 _050_
*76 _051_
*77 _052_
*78 _053_
*79 _054_
*80 _055_
*81 _056_
*82 _057_
*83 _058_
*84 _059_
*85 _060_
*86 _061_
*87 _062_
*88 _063_
*89 _064_
*90 _065_
*91 _066_
*92 _067_
*93 _068_
*94 _069_
*95 _070_
*96 clknet_0_clkin
*97 clknet_2_0__leaf_clkin
*98 clknet_2_1__leaf_clkin
*99 clknet_2_2__leaf_clkin
*100 clknet_2_3__leaf_clkin
*101 datacounter\[0\]
*102 datacounter\[1\]
*103 datacounter\[2\]
*104 net1
*105 net10
*106 net11
*107 net12
*108 net13
*109 net14
*110 net15
*111 net16
*112 net17
*113 net18
*114 net19
*115 net2
*116 net20
*117 net21
*118 net22
*119 net23
*120 net24
*121 net25
*122 net26
*123 net27
*124 net28
*125 net29
*126 net3
*127 net30
*128 net31
*129 net32
*130 net33
*131 net34
*132 net35
*133 net36
*134 net37
*135 net38
*136 net39
*137 net4
*138 net40
*139 net41
*140 net42
*141 net43
*142 net44
*143 net45
*144 net46
*145 net47
*146 net48
*147 net49
*148 net5
*149 net50
*150 net51
*151 net52
*152 net53
*153 net54
*154 net55
*155 net56
*156 net57
*157 net58
*158 net6
*159 net7
*160 net8
*161 net9
*162 rx
*163 shiftreg_rx\[0\]
*164 shiftreg_rx\[1\]
*165 shiftreg_rx\[2\]
*166 shiftreg_rx\[3\]
*167 shiftreg_rx\[4\]
*168 shiftreg_rx\[5\]
*169 shiftreg_rx\[6\]
*170 shiftreg_rx\[7\]
*171 shiftreg_tx\[0\]
*172 shiftreg_tx\[1\]
*173 shiftreg_tx\[2\]
*174 shiftreg_tx\[3\]
*175 shiftreg_tx\[4\]
*176 shiftreg_tx\[5\]
*177 shiftreg_tx\[6\]
*178 shiftreg_tx\[7\]
*179 state\[0\]
*180 state\[1\]
*181 state\[2\]
*182 FILLER_0_103
*183 FILLER_0_113
*184 FILLER_0_15
*185 FILLER_0_27
*186 FILLER_0_29
*187 FILLER_0_3
*188 FILLER_0_50
*189 FILLER_0_57
*190 FILLER_0_72
*191 FILLER_0_97
*192 FILLER_10_109
*193 FILLER_10_13
*194 FILLER_10_23
*195 FILLER_10_27
*196 FILLER_10_37
*197 FILLER_10_49
*198 FILLER_10_7
*199 FILLER_10_80
*200 FILLER_10_85
*201 FILLER_10_97
*202 FILLER_11_113
*203 FILLER_11_55
*204 FILLER_12_110
*205 FILLER_12_114
*206 FILLER_12_27
*207 FILLER_12_57
*208 FILLER_12_6
*209 FILLER_13_113
*210 FILLER_13_3
*211 FILLER_13_46
*212 FILLER_13_50
*213 FILLER_13_54
*214 FILLER_13_57
*215 FILLER_13_82
*216 FILLER_13_9
*217 FILLER_14_106
*218 FILLER_14_114
*219 FILLER_14_25
*220 FILLER_14_29
*221 FILLER_14_38
*222 FILLER_14_50
*223 FILLER_14_6
*224 FILLER_14_91
*225 FILLER_15_108
*226 FILLER_15_113
*227 FILLER_15_31
*228 FILLER_15_52
*229 FILLER_15_6
*230 FILLER_15_64
*231 FILLER_15_76
*232 FILLER_15_84
*233 FILLER_16_109
*234 FILLER_16_23
*235 FILLER_16_27
*236 FILLER_16_49
*237 FILLER_16_81
*238 FILLER_16_85
*239 FILLER_16_97
*240 FILLER_17_102
*241 FILLER_17_110
*242 FILLER_17_113
*243 FILLER_17_3
*244 FILLER_17_30
*245 FILLER_17_57
*246 FILLER_17_9
*247 FILLER_17_90
*248 FILLER_18_105
*249 FILLER_18_113
*250 FILLER_18_15
*251 FILLER_18_27
*252 FILLER_18_29
*253 FILLER_18_3
*254 FILLER_18_33
*255 FILLER_18_43
*256 FILLER_18_53
*257 FILLER_18_57
*258 FILLER_18_93
*259 FILLER_19_109
*260 FILLER_19_113
*261 FILLER_19_15
*262 FILLER_19_27
*263 FILLER_19_3
*264 FILLER_19_37
*265 FILLER_19_41
*266 FILLER_19_48
*267 FILLER_19_68
*268 FILLER_19_72
*269 FILLER_19_76
*270 FILLER_19_85
*271 FILLER_19_97
*272 FILLER_1_113
*273 FILLER_1_15
*274 FILLER_1_3
*275 FILLER_1_53
*276 FILLER_1_61
*277 FILLER_1_99
*278 FILLER_2_11
*279 FILLER_2_29
*280 FILLER_2_3
*281 FILLER_2_49
*282 FILLER_2_83
*283 FILLER_2_94
*284 FILLER_3_110
*285 FILLER_3_113
*286 FILLER_3_3
*287 FILLER_3_54
*288 FILLER_3_57
*289 FILLER_3_87
*290 FILLER_3_98
*291 FILLER_4_113
*292 FILLER_4_23
*293 FILLER_4_27
*294 FILLER_4_29
*295 FILLER_4_33
*296 FILLER_4_83
*297 FILLER_5_113
*298 FILLER_5_24
*299 FILLER_5_65
*300 FILLER_6_15
*301 FILLER_6_19
*302 FILLER_6_3
*303 FILLER_6_48
*304 FILLER_6_56
*305 FILLER_6_67
*306 FILLER_6_85
*307 FILLER_7_110
*308 FILLER_7_113
*309 FILLER_7_15
*310 FILLER_7_19
*311 FILLER_7_29
*312 FILLER_7_3
*313 FILLER_7_50
*314 FILLER_7_57
*315 FILLER_7_69
*316 FILLER_8_43
*317 FILLER_8_49
*318 FILLER_8_83
*319 FILLER_8_85
*320 FILLER_8_93
*321 FILLER_9_100
*322 FILLER_9_113
*323 FILLER_9_43
*324 FILLER_9_6
*325 FILLER_9_84
*326 FILLER_9_96
*327 PHY_EDGE_ROW_0_Left_20
*328 PHY_EDGE_ROW_0_Right_0
*329 PHY_EDGE_ROW_10_Left_30
*330 PHY_EDGE_ROW_10_Right_10
*331 PHY_EDGE_ROW_11_Left_31
*332 PHY_EDGE_ROW_11_Right_11
*333 PHY_EDGE_ROW_12_Left_32
*334 PHY_EDGE_ROW_12_Right_12
*335 PHY_EDGE_ROW_13_Left_33
*336 PHY_EDGE_ROW_13_Right_13
*337 PHY_EDGE_ROW_14_Left_34
*338 PHY_EDGE_ROW_14_Right_14
*339 PHY_EDGE_ROW_15_Left_35
*340 PHY_EDGE_ROW_15_Right_15
*341 PHY_EDGE_ROW_16_Left_36
*342 PHY_EDGE_ROW_16_Right_16
*343 PHY_EDGE_ROW_17_Left_37
*344 PHY_EDGE_ROW_17_Right_17
*345 PHY_EDGE_ROW_18_Left_38
*346 PHY_EDGE_ROW_18_Right_18
*347 PHY_EDGE_ROW_19_Left_39
*348 PHY_EDGE_ROW_19_Right_19
*349 PHY_EDGE_ROW_1_Left_21
*350 PHY_EDGE_ROW_1_Right_1
*351 PHY_EDGE_ROW_2_Left_22
*352 PHY_EDGE_ROW_2_Right_2
*353 PHY_EDGE_ROW_3_Left_23
*354 PHY_EDGE_ROW_3_Right_3
*355 PHY_EDGE_ROW_4_Left_24
*356 PHY_EDGE_ROW_4_Right_4
*357 PHY_EDGE_ROW_5_Left_25
*358 PHY_EDGE_ROW_5_Right_5
*359 PHY_EDGE_ROW_6_Left_26
*360 PHY_EDGE_ROW_6_Right_6
*361 PHY_EDGE_ROW_7_Left_27
*362 PHY_EDGE_ROW_7_Right_7
*363 PHY_EDGE_ROW_8_Left_28
*364 PHY_EDGE_ROW_8_Right_8
*365 PHY_EDGE_ROW_9_Left_29
*366 PHY_EDGE_ROW_9_Right_9
*367 TAP_TAPCELL_ROW_0_40
*368 TAP_TAPCELL_ROW_0_41
*369 TAP_TAPCELL_ROW_0_42
*370 TAP_TAPCELL_ROW_0_43
*371 TAP_TAPCELL_ROW_10_62
*372 TAP_TAPCELL_ROW_10_63
*373 TAP_TAPCELL_ROW_11_64
*374 TAP_TAPCELL_ROW_11_65
*375 TAP_TAPCELL_ROW_12_66
*376 TAP_TAPCELL_ROW_12_67
*377 TAP_TAPCELL_ROW_13_68
*378 TAP_TAPCELL_ROW_13_69
*379 TAP_TAPCELL_ROW_14_70
*380 TAP_TAPCELL_ROW_14_71
*381 TAP_TAPCELL_ROW_15_72
*382 TAP_TAPCELL_ROW_15_73
*383 TAP_TAPCELL_ROW_16_74
*384 TAP_TAPCELL_ROW_16_75
*385 TAP_TAPCELL_ROW_17_76
*386 TAP_TAPCELL_ROW_17_77
*387 TAP_TAPCELL_ROW_18_78
*388 TAP_TAPCELL_ROW_18_79
*389 TAP_TAPCELL_ROW_19_80
*390 TAP_TAPCELL_ROW_19_81
*391 TAP_TAPCELL_ROW_19_82
*392 TAP_TAPCELL_ROW_19_83
*393 TAP_TAPCELL_ROW_1_44
*394 TAP_TAPCELL_ROW_1_45
*395 TAP_TAPCELL_ROW_2_46
*396 TAP_TAPCELL_ROW_2_47
*397 TAP_TAPCELL_ROW_3_48
*398 TAP_TAPCELL_ROW_3_49
*399 TAP_TAPCELL_ROW_4_50
*400 TAP_TAPCELL_ROW_4_51
*401 TAP_TAPCELL_ROW_5_52
*402 TAP_TAPCELL_ROW_5_53
*403 TAP_TAPCELL_ROW_6_54
*404 TAP_TAPCELL_ROW_6_55
*405 TAP_TAPCELL_ROW_7_56
*406 TAP_TAPCELL_ROW_7_57
*407 TAP_TAPCELL_ROW_8_58
*408 TAP_TAPCELL_ROW_8_59
*409 TAP_TAPCELL_ROW_9_60
*410 TAP_TAPCELL_ROW_9_61
*411 _071_
*412 _072_
*413 _073_
*414 _074_
*415 _075_
*416 _076_
*417 _077_
*418 _078_
*419 _079_
*420 _080_
*421 _081_
*422 _082_
*423 _083_
*424 _084_
*425 _085_
*426 _086_
*427 _087_
*428 _088_
*429 _089_
*430 _090_
*431 _091_
*432 _092_
*433 _093_
*434 _094_
*435 _095_
*436 _096_
*437 _097_
*438 _098_
*439 _099_
*440 _100_
*441 _101_
*442 _102_
*443 _103_
*444 _104_
*445 _105_
*446 _106_
*447 _107_
*448 _108_
*449 _109_
*450 _110_
*451 _111_
*452 _112_
*453 _113_
*454 _114_
*455 _115_
*456 _116_
*457 _117_
*458 _118_
*459 _119_
*460 _120_
*461 _121_
*462 _122_
*463 _123_
*464 _124_
*465 _125_
*466 _126_
*467 _127_
*468 _128_
*469 _129_
*470 _130_
*471 _131_
*472 _132_
*473 _133_
*474 _134_
*475 _135_
*476 _136_
*477 _137_
*478 _138_
*479 _139_
*480 _140_
*481 _141_
*482 _142_
*483 _143_
*484 _144_
*485 _145_
*486 _146_
*487 _147_
*488 _148_
*489 _149_
*490 _150_
*491 _151_
*492 _152_
*493 _153_
*494 _154_
*495 _155_
*496 _156_
*497 _157_
*498 _158_
*499 _159_
*500 _160_
*501 _161_
*502 _162_
*503 _163_
*504 _164_
*505 _165_
*506 _166_
*507 _167_
*508 _168_
*509 _169_
*510 _170_
*511 _171_
*512 _172_
*513 _173_
*514 clkbuf_0_clkin
*515 clkbuf_2_0__f_clkin
*516 clkbuf_2_1__f_clkin
*517 clkbuf_2_2__f_clkin
*518 clkbuf_2_3__f_clkin
*519 clkload0
*520 clkload1
*521 clkload2
*522 fanout22
*523 fanout23
*524 fanout24
*525 fanout25
*526 fanout26
*527 fanout27
*528 hold1
*529 hold10
*530 hold11
*531 hold12
*532 hold13
*533 hold14
*534 hold15
*535 hold16
*536 hold17
*537 hold18
*538 hold19
*539 hold2
*540 hold20
*541 hold21
*542 hold22
*543 hold23
*544 hold24
*545 hold25
*546 hold26
*547 hold27
*548 hold28
*549 hold29
*550 hold3
*551 hold30
*552 hold31
*553 hold4
*554 hold5
*555 hold6
*556 hold7
*557 hold8
*558 hold9
*559 input1
*560 input10
*561 input11
*562 input12
*563 input2
*564 input3
*565 input4
*566 input5
*567 input6
*568 input7
*569 input8
*570 input9
*571 output13
*572 output14
*573 output15
*574 output16
*575 output17
*576 output18
*577 output19
*578 output20
*579 output21

*PORTS
clkin I
data_in[0] I
data_in[1] I
data_in[2] I
data_in[3] I
data_in[4] I
data_in[5] I
data_in[6] I
data_in[7] I
data_out[0] O
data_out[1] O
data_out[2] O
data_out[3] O
data_out[4] O
data_out[5] O
data_out[6] O
data_out[7] O
reset I
sclk I
sdi I
sdo O
slave_select_in I

*D_NET *3 0.00686894
*CONN
*P clkin I
*I *514:A I *D sky130_fd_sc_hd__clkbuf_16
*CAP
1 clkin 0.00298506
2 *514:A 2.23854e-05
3 *3:13 0.00300745
4 *3:13 data_out[0] 0
5 *3:13 *425:A1 2.59355e-05
6 *3:13 *425:B1 6.78942e-05
7 *3:13 *438:A0 7.49499e-05
8 *3:13 *453:B2 0
9 *3:13 *455:B1 0
10 *3:13 *467:B 8.3678e-05
11 *3:13 *506:CLK 5.33433e-05
12 *3:13 *549:A 0.000119411
13 *3:13 *559:A 9.48025e-05
14 *3:13 *564:A 0.000165157
15 *3:13 *565:A 0
16 *3:13 *571:A 0
17 *3:13 *87:20 0.000118681
18 *3:13 *163:6 5.01883e-05
19 *3:13 *172:8 0
*RES
1 clkin *3:13 49.6794 
2 *3:13 *514:A 9.72857 
*END

*D_NET *4 0.000594068
*CONN
*P data_in[0] I
*I *559:A I *D sky130_fd_sc_hd__clkbuf_1
*CAP
1 data_in[0] 0.000212467
2 *559:A 0.000212467
3 *559:A data_out[0] 3.71658e-05
4 *559:A *506:CLK 0
5 *559:A *561:A 0
6 *559:A *563:A 3.71658e-05
7 *559:A *564:A 0
8 *3:13 *559:A 9.48025e-05
*RES
1 data_in[0] *559:A 19.0336 
*END

*D_NET *5 0.000499634
*CONN
*P data_in[1] I
*I *563:A I *D sky130_fd_sc_hd__clkbuf_1
*CAP
1 data_in[1] 0.000213941
2 *563:A 0.000213941
3 *563:A *564:A 3.45861e-05
4 *559:A *563:A 3.71658e-05
*RES
1 data_in[1] *563:A 19.9411 
*END

*D_NET *6 0.000762415
*CONN
*P data_in[2] I
*I *564:A I *D sky130_fd_sc_hd__clkbuf_1
*CAP
1 data_in[2] 0.000262753
2 *564:A 0.000262753
3 *564:A *453:B2 0
4 *564:A *565:A 3.71658e-05
5 *559:A *564:A 0
6 *563:A *564:A 3.45861e-05
7 *3:13 *564:A 0.000165157
*RES
1 data_in[2] *564:A 19.9443 
*END

*D_NET *7 0.0006399
*CONN
*P data_in[3] I
*I *565:A I *D sky130_fd_sc_hd__clkbuf_1
*CAP
1 data_in[3] 0.000301367
2 *565:A 0.000301367
3 *564:A *565:A 3.71658e-05
4 *3:13 *565:A 0
*RES
1 data_in[3] *565:A 21.4589 
*END

*D_NET *8 0.000955935
*CONN
*P data_in[4] I
*I *566:A I *D sky130_fd_sc_hd__clkbuf_1
*CAP
1 data_in[4] 0.000477967
2 *566:A 0.000477967
3 *566:A *567:A 0
*RES
1 data_in[4] *566:A 23.2643 
*END

*D_NET *9 0.000953914
*CONN
*P data_in[5] I
*I *567:A I *D sky130_fd_sc_hd__clkbuf_1
*CAP
1 data_in[5] 0.000476957
2 *567:A 0.000476957
3 *566:A *567:A 0
*RES
1 data_in[5] *567:A 23.2643 
*END

*D_NET *10 0.00131098
*CONN
*P data_in[6] I
*I *568:A I *D sky130_fd_sc_hd__clkbuf_1
*CAP
1 data_in[6] 0.000613624
2 *568:A 0.000613624
3 *568:A *461:A1 8.37335e-05
*RES
1 data_in[6] *568:A 25.8536 
*END

*D_NET *11 0.000871509
*CONN
*P data_in[7] I
*I *569:A I *D sky130_fd_sc_hd__clkbuf_1
*CAP
1 data_in[7] 0.000435755
2 *569:A 0.000435755
3 *569:A sdo 0
4 *569:A *579:A 0
*RES
1 data_in[7] *569:A 22.4429 
*END

*D_NET *12 0.000699239
*CONN
*P data_out[0] O
*I *571:X O *D sky130_fd_sc_hd__buf_2
*CAP
1 data_out[0] 0.000312454
2 *571:X 0.000312454
3 data_out[0] *561:A 3.71658e-05
4 *559:A data_out[0] 3.71658e-05
5 *3:13 data_out[0] 0
*RES
1 *571:X data_out[0] 20.9589 
*END

*D_NET *13 0.00181614
*CONN
*P data_out[1] O
*I *572:X O *D sky130_fd_sc_hd__buf_2
*CAP
1 data_out[1] 0.000629586
2 *572:X 0.000629586
3 data_out[1] data_out[3] 0
4 data_out[1] *493:RESET_B 0.000197991
5 data_out[1] *494:D 0
6 data_out[1] *87:58 0.000358977
*RES
1 *572:X data_out[1] 26.8357 
*END

*D_NET *14 0.000725878
*CONN
*P data_out[2] O
*I *573:X O *D sky130_fd_sc_hd__buf_2
*CAP
1 data_out[2] 0.000362939
2 *573:X 0.000362939
*RES
1 *573:X data_out[2] 20.891 
*END

*D_NET *15 0.00147459
*CONN
*P data_out[3] O
*I *574:X O *D sky130_fd_sc_hd__buf_2
*CAP
1 data_out[3] 0.000678131
2 *574:X 0.000678131
3 data_out[3] *493:CLK 0
4 data_out[3] *493:RESET_B 4.96525e-05
5 data_out[3] *574:A 6.86792e-05
6 data_out[1] data_out[3] 0
*RES
1 *574:X data_out[3] 26.3893 
*END

*D_NET *16 0.00102083
*CONN
*P data_out[4] O
*I *575:X O *D sky130_fd_sc_hd__buf_2
*CAP
1 data_out[4] 0.000510414
2 *575:X 0.000510414
*RES
1 *575:X data_out[4] 22.4607 
*END

*D_NET *17 0.00162129
*CONN
*P data_out[5] O
*I *576:X O *D sky130_fd_sc_hd__buf_2
*CAP
1 data_out[5] 0.000607778
2 *576:X 0.000607778
3 data_out[5] *161:12 0.000405733
*RES
1 *576:X data_out[5] 24.5143 
*END

*D_NET *18 0.00179262
*CONN
*P data_out[6] O
*I *577:X O *D sky130_fd_sc_hd__buf_2
*CAP
1 data_out[6] 0.000748174
2 *577:X 0.000748174
3 data_out[6] *444:A1 0
4 data_out[6] *496:D 5.01213e-05
5 data_out[6] *511:RESET_B 0
6 data_out[6] *558:A 0.000160414
7 data_out[6] *570:A 8.57347e-05
8 data_out[6] *576:A 0
9 data_out[6] *120:43 0
*RES
1 *577:X data_out[6] 22.7746 
*END

*D_NET *19 0.00247642
*CONN
*P data_out[7] O
*I *578:X O *D sky130_fd_sc_hd__buf_2
*CAP
1 data_out[7] 0.000619978
2 *578:X 0.000619978
3 data_out[7] *445:S 8.902e-05
4 data_out[7] *560:A 0.000115785
5 data_out[7] *578:A 0.000377288
6 data_out[7] *116:10 7.92879e-05
7 data_out[7] *161:12 0.000575088
*RES
1 *578:X data_out[7] 31.7683 
*END

*D_NET *20 0.001849
*CONN
*P reset I
*I *570:A I *D sky130_fd_sc_hd__clkbuf_1
*CAP
1 reset 0.000642215
2 *570:A 0.000642215
3 *570:A *528:A 0
4 *570:A *161:12 0.000478831
5 data_out[6] *570:A 8.57347e-05
*RES
1 reset *570:A 29.6586 
*END

*D_NET *21 0.00139232
*CONN
*P sclk I
*I *560:A I *D sky130_fd_sc_hd__buf_1
*CAP
1 sclk 0.000467302
2 *560:A 0.000467302
3 *560:A *528:A 8.68445e-05
4 *560:A *562:A 8.57347e-05
5 *560:A *122:47 0
6 *560:A *124:12 0.000169356
7 data_out[7] *560:A 0.000115785
*RES
1 sclk *560:A 22.8588 
*END

*D_NET *22 0.000682955
*CONN
*P sdi I
*I *561:A I *D sky130_fd_sc_hd__clkbuf_1
*CAP
1 sdi 0.000322894
2 *561:A 0.000322894
3 *561:A *571:A 0
4 *561:A *108:10 0
5 data_out[0] *561:A 3.71658e-05
6 *559:A *561:A 0
*RES
1 sdi *561:A 20.2479 
*END

*D_NET *23 0.000892479
*CONN
*P sdo O
*I *579:X O *D sky130_fd_sc_hd__buf_2
*CAP
1 sdo 0.000446239
2 *579:X 0.000446239
3 *569:A sdo 0
*RES
1 *579:X sdo 22.6571 
*END

*D_NET *24 0.000565194
*CONN
*P slave_select_in I
*I *562:A I *D sky130_fd_sc_hd__buf_2
*CAP
1 slave_select_in 0.000239729
2 *562:A 0.000239729
3 *560:A *562:A 8.57347e-05
*RES
1 slave_select_in *562:A 19.3371 
*END

*D_NET *25 0.00167832
*CONN
*I *486:D I *D sky130_fd_sc_hd__dfstp_1
*I *422:X O *D sky130_fd_sc_hd__a31o_1
*CAP
1 *486:D 0.000443936
2 *422:X 0.000443936
3 *486:D *447:A 0.000123295
4 *486:D *448:B1 0.000307343
5 *486:D *450:A_N 0.000125731
6 *486:D *539:A 5.33005e-05
7 *486:D *85:14 0.000180777
*RES
1 *422:X *486:D 36.7607 
*END

*D_NET *26 0.00149047
*CONN
*I *487:D I *D sky130_fd_sc_hd__dfrtp_2
*I *425:Y O *D sky130_fd_sc_hd__o21ai_1
*CAP
1 *487:D 0.000544674
2 *425:Y 0.000544674
3 *487:D *425:A1 0
4 *487:D *446:B 0.000103275
5 *487:D *449:B2 5.58005e-05
6 *487:D *488:D 3.47737e-05
7 *487:D *502:RESET_B 8.08283e-05
8 *487:D *56:10 0.000126439
*RES
1 *425:Y *487:D 38.2607 
*END

*D_NET *27 0.00067685
*CONN
*I *488:D I *D sky130_fd_sc_hd__dfrtp_4
*I *417:X O *D sky130_fd_sc_hd__o21ba_1
*CAP
1 *488:D 0.000251308
2 *417:X 0.000251308
3 *488:D *425:A1 0.000125731
4 *488:D *502:RESET_B 0
5 *488:D *551:A 0
6 *488:D *87:14 1.37292e-05
7 *487:D *488:D 3.47737e-05
*RES
1 *417:X *488:D 32.0687 
*END

*D_NET *28 0.000863351
*CONN
*I *483:D I *D sky130_fd_sc_hd__dfstp_1
*I *431:X O *D sky130_fd_sc_hd__a221o_1
*CAP
1 *483:D 0.000201752
2 *431:X 0.000201752
3 *483:D *426:A1 6.42242e-05
4 *483:D *483:CLK 0.000115794
5 *483:D *100:51 0.000170654
6 *483:D *101:30 2.56601e-05
7 *483:D *121:35 4.42389e-05
8 *483:D *181:68 0
9 *483:D *181:77 3.92757e-05
*RES
1 *431:X *483:D 32.2071 
*END

*D_NET *29 0.000854151
*CONN
*I *484:D I *D sky130_fd_sc_hd__dfstp_1
*I *434:X O *D sky130_fd_sc_hd__a221o_1
*CAP
1 *484:D 0.000230373
2 *434:X 0.000230373
3 *484:D *414:C 0.000218685
4 *484:D *434:B1 0.000125724
5 *484:D *437:A2 3.9745e-05
6 *484:D *437:B1 9.25014e-06
*RES
1 *434:X *484:D 31.4214 
*END

*D_NET *30 0.000492887
*CONN
*I *485:D I *D sky130_fd_sc_hd__dfstp_1
*I *437:X O *D sky130_fd_sc_hd__a221o_1
*CAP
1 *485:D 0.000198804
2 *437:X 0.000198804
3 *485:D *414:C 9.22103e-06
4 *485:D *434:C1 5.71472e-05
5 *485:D *437:B1 1.48716e-05
6 *485:D *485:CLK 0
7 *485:D *92:33 1.40399e-05
8 *485:D *122:47 0
9 *485:D *122:54 0
*RES
1 *437:X *485:D 30.6 
*END

*D_NET *31 0.000777258
*CONN
*I *534:A I *D sky130_fd_sc_hd__dlygate4sd3_1
*I *438:X O *D sky130_fd_sc_hd__mux2_1
*CAP
1 *534:A 0.000361731
2 *438:X 0.000361731
3 *534:A *438:A0 5.37963e-05
*RES
1 *438:X *534:A 24.4929 
*END

*D_NET *32 0.00140881
*CONN
*I *532:A I *D sky130_fd_sc_hd__dlygate4sd3_1
*I *439:X O *D sky130_fd_sc_hd__mux2_1
*CAP
1 *532:A 0.000392005
2 *439:X 0.000392005
3 *532:A *536:A 0.000624797
*RES
1 *439:X *532:A 26.5464 
*END

*D_NET *33 0.00123913
*CONN
*I *530:A I *D sky130_fd_sc_hd__dlygate4sd3_1
*I *440:X O *D sky130_fd_sc_hd__mux2_1
*CAP
1 *530:A 0.000299757
2 *440:X 0.000299757
3 *530:A *472:A0 0.00012784
4 *530:A *472:A1 0.0001399
5 *530:A *508:D 1.02911e-05
6 *530:A *68:68 0.000198357
7 *530:A *87:20 1.69252e-05
8 *530:A *87:120 0.000104611
9 *530:A *97:49 2.38651e-06
10 *530:A *97:62 3.93071e-05
*RES
1 *440:X *530:A 35.0286 
*END

*D_NET *34 0.00240498
*CONN
*I *536:A I *D sky130_fd_sc_hd__dlygate4sd3_1
*I *441:X O *D sky130_fd_sc_hd__mux2_1
*CAP
1 *536:A 0.000454379
2 *441:X 0.000454379
3 *536:A *491:D 3.48705e-05
4 *536:A *531:A 0.000511462
5 *536:A *87:28 0.000186765
6 *536:A *87:35 0.00013833
7 *532:A *536:A 0.000624797
*RES
1 *441:X *536:A 40.2786 
*END

*D_NET *35 0.000552638
*CONN
*I *556:A I *D sky130_fd_sc_hd__dlygate4sd3_1
*I *442:X O *D sky130_fd_sc_hd__mux2_1
*CAP
1 *556:A 0.000222028
2 *442:X 0.000222028
3 *556:A *494:D 0
4 *556:A *575:A 0
5 *556:A *87:58 0.000108582
*RES
1 *442:X *556:A 31.0107 
*END

*D_NET *36 0.00092088
*CONN
*I *554:A I *D sky130_fd_sc_hd__dlygate4sd3_1
*I *443:X O *D sky130_fd_sc_hd__mux2_1
*CAP
1 *554:A 0.000360235
2 *443:X 0.000360235
3 *554:A *443:A1 0
4 *554:A *477:B 0
5 *554:A *495:D 4.63835e-05
6 *554:A *576:A 0
7 *554:A *120:43 0
8 *554:A *123:8 0
9 *554:A *161:12 0.000154027
*RES
1 *443:X *554:A 34.2607 
*END

*D_NET *37 0.000860793
*CONN
*I *558:A I *D sky130_fd_sc_hd__dlygate4sd3_1
*I *444:X O *D sky130_fd_sc_hd__mux2_1
*CAP
1 *558:A 0.000350189
2 *444:X 0.000350189
3 *558:A *444:A1 0
4 *558:A *511:RESET_B 0
5 *558:A *524:A 0
6 data_out[6] *558:A 0.000160414
*RES
1 *444:X *558:A 33.85 
*END

*D_NET *38 0.000971101
*CONN
*I *497:D I *D sky130_fd_sc_hd__dfrtp_1
*I *445:X O *D sky130_fd_sc_hd__mux2_1
*CAP
1 *497:D 0.000256907
2 *445:X 0.000256907
3 *497:D *445:A1 0.00032246
4 *497:D *482:A0 7.43578e-06
5 *497:D *497:RESET_B 9.84891e-05
6 *497:D *122:36 2.89016e-05
7 *497:D *122:40 0
8 *497:D *122:47 0
*RES
1 *445:X *497:D 33.85 
*END

*D_NET *39 0.00111272
*CONN
*I *498:D I *D sky130_fd_sc_hd__dfrtp_1
*I *449:X O *D sky130_fd_sc_hd__a32o_1
*CAP
1 *498:D 0.000191595
2 *449:X 0.000191595
3 *498:D *449:A1 0.000535885
4 *498:D *498:CLK 7.15846e-05
5 *498:D *99:25 9.93135e-05
6 *498:D *171:12 2.27416e-05
*RES
1 *449:X *498:D 25.7071 
*END

*D_NET *40 0.000836159
*CONN
*I *499:D I *D sky130_fd_sc_hd__dfrtp_1
*I *452:X O *D sky130_fd_sc_hd__mux2_1
*CAP
1 *499:D 0.000256204
2 *452:X 0.000256204
3 *499:D *449:A3 0
4 *499:D *449:B1 0
5 *499:D *452:A0 0.000268521
6 *499:D *59:18 5.52302e-05
7 *499:D *99:8 0
8 *499:D *99:10 0
*RES
1 *452:X *499:D 32.8143 
*END

*D_NET *41 0.000812784
*CONN
*I *500:D I *D sky130_fd_sc_hd__dfrtp_1
*I *454:X O *D sky130_fd_sc_hd__mux2_1
*CAP
1 *500:D 0.000335729
2 *454:X 0.000335729
3 *500:D *500:CLK 0.000141326
4 *500:D *500:RESET_B 0
*RES
1 *454:X *500:D 32.475 
*END

*D_NET *42 0.00054746
*CONN
*I *501:D I *D sky130_fd_sc_hd__dfrtp_1
*I *456:X O *D sky130_fd_sc_hd__mux2_1
*CAP
1 *501:D 0.00027373
2 *456:X 0.00027373
3 *501:D *456:A0 0
*RES
1 *456:X *501:D 31.1179 
*END

*D_NET *43 0.000853356
*CONN
*I *502:D I *D sky130_fd_sc_hd__dfrtp_1
*I *458:X O *D sky130_fd_sc_hd__mux2_1
*CAP
1 *502:D 0.000270751
2 *458:X 0.000270751
3 *502:D *457:B2 0.000175512
4 *502:D *58:22 3.42509e-05
5 *502:D *58:33 0.00010209
*RES
1 *458:X *502:D 33.225 
*END

*D_NET *44 0.000787928
*CONN
*I *503:D I *D sky130_fd_sc_hd__dfrtp_1
*I *460:X O *D sky130_fd_sc_hd__mux2_1
*CAP
1 *503:D 0.000225036
2 *460:X 0.000225036
3 *503:D *458:A0 0.000100831
4 *503:D *458:A1 0.000183726
5 *503:D *501:RESET_B 5.33005e-05
*RES
1 *460:X *503:D 31.2429 
*END

*D_NET *45 0.000873051
*CONN
*I *504:D I *D sky130_fd_sc_hd__dfrtp_1
*I *462:X O *D sky130_fd_sc_hd__mux2_1
*CAP
1 *504:D 0.000268169
2 *462:X 0.000268169
3 *504:D *460:A0 0
4 *504:D *461:B2 0.000299988
5 *504:D *502:RESET_B 0
6 *504:D *58:14 3.67257e-05
*RES
1 *462:X *504:D 33.225 
*END

*D_NET *46 0.000293583
*CONN
*I *505:D I *D sky130_fd_sc_hd__dfrtp_1
*I *464:X O *D sky130_fd_sc_hd__mux2_1
*CAP
1 *505:D 9.45418e-05
2 *464:X 9.45418e-05
3 *505:D *462:A0 3.06406e-05
4 *505:D *462:A1 2.89114e-05
5 *505:D *505:CLK 9.25014e-06
6 *505:D *58:10 3.56976e-05
*RES
1 *464:X *505:D 29.475 
*END

*D_NET *47 0.000785608
*CONN
*I *506:D I *D sky130_fd_sc_hd__dfrtp_1
*I *468:X O *D sky130_fd_sc_hd__mux2_1
*CAP
1 *506:D 0.000219405
2 *468:X 0.000219405
3 *506:D *438:S 0.000169572
4 *506:D *467:B 0
5 *506:D *468:A0 0
6 *506:D *490:CLK 0.000177227
*RES
1 *468:X *506:D 32.6179 
*END

*D_NET *48 0.000303258
*CONN
*I *507:D I *D sky130_fd_sc_hd__dfrtp_1
*I *470:X O *D sky130_fd_sc_hd__mux2_1
*CAP
1 *507:D 7.36677e-05
2 *470:X 7.36677e-05
3 *507:D *468:A1 7.65882e-05
4 *507:D *507:CLK 3.08664e-05
5 *507:D *87:20 4.84678e-05
*RES
1 *470:X *507:D 29.475 
*END

*D_NET *49 0.00117724
*CONN
*I *508:D I *D sky130_fd_sc_hd__dfrtp_1
*I *472:X O *D sky130_fd_sc_hd__mux2_1
*CAP
1 *508:D 0.00027523
2 *472:X 0.00027523
3 *508:D *68:68 4.51769e-05
4 *508:D *87:28 0.000342488
5 *508:D *87:120 5.33005e-05
6 *508:D *118:16 0.000175526
7 *530:A *508:D 1.02911e-05
*RES
1 *472:X *508:D 33.7429 
*END

*D_NET *50 0.000739248
*CONN
*I *509:D I *D sky130_fd_sc_hd__dfrtp_1
*I *474:X O *D sky130_fd_sc_hd__mux2_1
*CAP
1 *509:D 0.000203772
2 *474:X 0.000203772
3 *509:D *439:A0 0.000315887
4 *509:D *68:68 1.58163e-05
*RES
1 *474:X *509:D 32.2071 
*END

*D_NET *51 0.000269098
*CONN
*I *510:D I *D sky130_fd_sc_hd__dfrtp_1
*I *476:X O *D sky130_fd_sc_hd__mux2_1
*CAP
1 *510:D 0.000118615
2 *476:X 0.000118615
3 *510:D *476:A0 3.18676e-05
4 *510:D *476:A1 0
5 *510:D *166:10 0
*RES
1 *476:X *510:D 29.475 
*END

*D_NET *52 0.000614865
*CONN
*I *511:D I *D sky130_fd_sc_hd__dfrtp_1
*I *478:X O *D sky130_fd_sc_hd__mux2_1
*CAP
1 *511:D 0.000104376
2 *478:X 0.000104376
3 *511:D *547:A 1.02504e-05
4 *511:D *68:39 6.62752e-05
5 *511:D *98:29 0.000100625
6 *511:D *120:69 7.83366e-05
7 *511:D *167:10 0.000150625
*RES
1 *478:X *511:D 31.3143 
*END

*D_NET *53 0.00042217
*CONN
*I *512:D I *D sky130_fd_sc_hd__dfrtp_1
*I *480:X O *D sky130_fd_sc_hd__mux2_1
*CAP
1 *512:D 7.55883e-05
2 *480:X 7.55883e-05
3 *512:D *480:S 9.25014e-06
4 *512:D *511:RESET_B 5.52238e-05
5 *512:D *68:14 0.00010326
6 *512:D *168:19 0.00010326
*RES
1 *480:X *512:D 29.475 
*END

*D_NET *54 0.000267007
*CONN
*I *513:D I *D sky130_fd_sc_hd__dfrtp_1
*I *482:X O *D sky130_fd_sc_hd__mux2_1
*CAP
1 *513:D 0.000123858
2 *482:X 0.000123858
3 *513:D *482:A0 0
4 *513:D *482:S 1.92905e-05
5 *513:D *68:12 0
*RES
1 *482:X *513:D 29.475 
*END

*D_NET *55 0.00124152
*CONN
*I *437:B2 I *D sky130_fd_sc_hd__a221o_1
*I *436:Y O *D sky130_fd_sc_hd__nand3_1
*CAP
1 *437:B2 0.00041438
2 *436:Y 0.00041438
3 *437:B2 *434:C1 2.85616e-05
4 *437:B2 *436:B 3.57366e-05
5 *437:B2 *436:C 0.000223204
6 *437:B2 *437:B1 1.02504e-05
7 *437:B2 *103:23 1.40399e-05
8 *437:B2 *107:124 0.000100969
9 *437:B2 *122:47 0
10 *437:B2 *122:54 0
*RES
1 *436:Y *437:B2 36.7429 
*END

*D_NET *56 0.00413277
*CONN
*I *466:C I *D sky130_fd_sc_hd__or4_4
*I *447:B I *D sky130_fd_sc_hd__nor2_1
*I *448:B1 I *D sky130_fd_sc_hd__a311o_4
*I *446:Y O *D sky130_fd_sc_hd__nor2_1
*CAP
1 *466:C 0.000580619
2 *447:B 6.84852e-05
3 *448:B1 0.000287672
4 *446:Y 0
5 *56:10 0.000601418
6 *56:4 0.00082588
7 *447:B *422:A2 6.26653e-05
8 *447:B *502:RESET_B 8.89385e-05
9 *448:B1 *418:B 2.14658e-05
10 *448:B1 *422:A1 0.000180777
11 *448:B1 *447:A 9.71197e-05
12 *448:B1 *448:C1 9.90431e-05
13 *448:B1 *85:14 3.28494e-05
14 *448:B1 *180:29 0
15 *466:C *416:A2 0.000210043
16 *466:C *416:B1_N 1.55953e-05
17 *466:C *417:A2 1.32552e-05
18 *466:C *446:A 0.000177293
19 *56:10 *422:A2 1.46624e-05
20 *56:10 *446:A 5.03772e-05
21 *56:10 *446:B 7.30398e-05
22 *56:10 *502:RESET_B 0.000197787
23 *486:D *448:B1 0.000307343
24 *487:D *56:10 0.000126439
*RES
1 *446:Y *56:4 9.3 
2 *56:4 *56:10 10.5357 
3 *56:10 *448:B1 20.1036 
4 *56:10 *447:B 16.05 
5 *56:4 *466:C 17.0232 
*END

*D_NET *57 0.00233526
*CONN
*I *449:A3 I *D sky130_fd_sc_hd__a32o_1
*I *447:Y O *D sky130_fd_sc_hd__nor2_1
*CAP
1 *449:A3 0.000740611
2 *447:Y 0.000740611
3 *449:A3 *449:A2 0.000149911
4 *449:A3 *449:B1 8.33655e-05
5 *449:A3 *449:B2 5.33005e-05
6 *449:A3 *487:CLK 0
7 *449:A3 *490:CLK 0
8 *449:A3 *517:A 4.16984e-05
9 *449:A3 *539:A 0.000141734
10 *449:A3 *99:10 0
11 *449:A3 *119:42 0.000384028
12 *499:D *449:A3 0
*RES
1 *447:Y *449:A3 41.5464 
*END

*D_NET *58 0.00963172
*CONN
*I *464:S I *D sky130_fd_sc_hd__mux2_1
*I *462:S I *D sky130_fd_sc_hd__mux2_1
*I *460:S I *D sky130_fd_sc_hd__mux2_1
*I *458:S I *D sky130_fd_sc_hd__mux2_1
*I *452:S I *D sky130_fd_sc_hd__mux2_1
*I *449:B1 I *D sky130_fd_sc_hd__a32o_1
*I *454:S I *D sky130_fd_sc_hd__mux2_1
*I *456:S I *D sky130_fd_sc_hd__mux2_1
*I *448:X O *D sky130_fd_sc_hd__a311o_4
*CAP
1 *464:S 6.93019e-05
2 *462:S 0
3 *460:S 0
4 *458:S 0
5 *452:S 0.00022632
6 *449:B1 0.000326022
7 *454:S 0.000156974
8 *456:S 0.000143344
9 *448:X 0.000795158
10 *58:48 0.000632762
11 *58:33 0.000476622
12 *58:22 0.000627115
13 *58:20 0.00050562
14 *58:14 0.000588731
15 *58:12 0.000398216
16 *58:10 0.000935022
17 *449:B1 *449:A2 0.000148189
18 *449:B1 *457:B2 3.34295e-05
19 *449:B1 *487:CLK 0
20 *449:B1 *84:78 1.65558e-05
21 *449:B1 *84:102 0.000338359
22 *449:B1 *99:82 0
23 *449:B1 *171:12 2.57162e-05
24 *452:S *59:18 6.87574e-05
25 *452:S *84:78 0.000446597
26 *454:S *454:A1 0.00010096
27 *454:S *455:B2 0.000320024
28 *454:S *500:RESET_B 0
29 *464:S *462:A1 0.000174232
30 *58:10 *418:B 0
31 *58:10 *422:A1 0
32 *58:10 *422:B1 0
33 *58:10 *426:A2 0
34 *58:10 *429:B1 0.000247064
35 *58:10 *462:A0 0
36 *58:10 *505:CLK 0
37 *58:10 *505:RESET_B 0
38 *58:10 *518:A 0
39 *58:10 *521:A 0
40 *58:10 *544:A 0
41 *58:10 *84:23 0
42 *58:10 *84:44 0
43 *58:10 *100:19 0
44 *58:10 *121:121 0
45 *58:12 *462:A1 0.000173328
46 *58:14 *462:A0 5.33005e-05
47 *58:14 *462:A1 6.74408e-05
48 *58:20 *458:A1 0.000225982
49 *58:22 *458:A0 5.52238e-05
50 *58:22 *458:A1 3.88213e-05
51 *58:33 *456:A0 0
52 *58:33 *457:B2 0.000357364
53 *58:33 *458:A0 0
54 *58:33 *541:A 0.000273387
55 *58:33 *173:12 0.000128146
56 *58:48 *457:B2 0.000165501
57 *449:A3 *449:B1 8.33655e-05
58 *499:D *449:B1 0
59 *502:D *58:22 3.42509e-05
60 *502:D *58:33 0.00010209
61 *504:D *58:14 3.67257e-05
62 *505:D *58:10 3.56976e-05
*RES
1 *448:X *58:10 32.9964 
2 *58:10 *58:12 1.76786 
3 *58:12 *58:14 5.875 
4 *58:14 *58:20 5.08929 
5 *58:20 *58:22 4.64286 
6 *58:22 *456:S 11.4786 
7 *58:22 *58:33 12.3661 
8 *58:33 *454:S 18.0232 
9 *58:33 *58:48 2.09821 
10 *58:48 *449:B1 21.6839 
11 *58:48 *452:S 19.2643 
12 *58:20 *458:S 9.3 
13 *58:14 *460:S 9.3 
14 *58:12 *462:S 9.3 
15 *58:10 *464:S 11.0679 
*END

*D_NET *59 0.0102689
*CONN
*I *463:B1 I *D sky130_fd_sc_hd__a22o_1
*I *461:B1 I *D sky130_fd_sc_hd__a22o_1
*I *459:B1 I *D sky130_fd_sc_hd__a22o_1
*I *451:B1 I *D sky130_fd_sc_hd__a22o_1
*I *457:B1 I *D sky130_fd_sc_hd__a22o_1
*I *453:B1 I *D sky130_fd_sc_hd__a22o_1
*I *455:B1 I *D sky130_fd_sc_hd__a22o_1
*I *450:X O *D sky130_fd_sc_hd__and3b_2
*CAP
1 *463:B1 0.00112987
2 *461:B1 0
3 *459:B1 0.000132022
4 *451:B1 0.000476324
5 *457:B1 0
6 *453:B1 0
7 *455:B1 0.000193989
8 *450:X 5.65819e-05
9 *59:77 0.00129315
10 *59:47 0.000608346
11 *59:18 0.000552679
12 *59:14 0.000449212
13 *59:10 0.000429467
14 *59:6 0.000558805
15 *451:B1 *449:B2 0.000198698
16 *451:B1 *539:A 0.000311671
17 *451:B1 *84:56 3.12359e-05
18 *451:B1 *99:58 1.83053e-05
19 *451:B1 *99:71 8.43535e-06
20 *451:B1 *99:82 0.000132292
21 *455:B1 *453:A1 2.89114e-05
22 *455:B1 *453:B2 1.19309e-05
23 *455:B1 *455:A1 1.92789e-05
24 *455:B1 *455:A2 6.95205e-05
25 *455:B1 *455:B2 7.49933e-05
26 *455:B1 *500:RESET_B 0
27 *459:B1 *458:A0 0.000126439
28 *459:B1 *459:A2 1.97695e-05
29 *459:B1 *459:B2 2.12007e-05
30 *459:B1 *84:56 0.000123359
31 *459:B1 *99:82 1.721e-05
32 *463:B1 *461:A1 0.00029513
33 *463:B1 *461:B2 0.000152929
34 *463:B1 *463:A2 4.25619e-05
35 *463:B1 *463:B2 0.000183344
36 *463:B1 *505:CLK 2.40379e-05
37 *463:B1 *542:A 1.36635e-05
38 *59:6 *450:B 5.52302e-05