*SPEF "ieee 1481-1999"
*DESIGN "Master"
*DATE "23:47:36 Thursday June 11, 2026"
*VENDOR "The OpenROAD Project"
*PROGRAM "OpenROAD"
*VERSION "edf00dff99f6c40d67a30c0e22a8191c5d2ed9d6"
*DESIGN_FLOW "NAME_SCOPE LOCAL" "PIN_CAP NONE"
*DIVIDER /
*DELIMITER :
*BUS_DELIMITER []
*T_UNIT 1 NS
*C_UNIT 1 PF
*R_UNIT 1 OHM
*L_UNIT 1 HENRY

*NAME_MAP
*3 clkin
*4 data_in[0]
*5 data_in[1]
*6 data_in[2]
*7 data_in[3]
*8 data_in[4]
*9 data_in[5]
*10 data_in[6]
*11 data_in[7]
*12 data_out[0]
*13 data_out[1]
*14 data_out[2]
*15 data_out[3]
*16 data_out[4]
*17 data_out[5]
*18 data_out[6]
*19 data_out[7]
*20 miso
*21 mode[0]
*22 mode[1]
*23 mosi
*24 reset
*25 sclk
*26 slave_select[0]
*27 slave_select[1]
*28 slave_select[2]
*29 slave_select[3]
*30 slave_select_in[0]
*31 slave_select_in[1]
*32 tx_enable
*33 _000_
*34 _001_
*35 _002_
*36 _003_
*37 _004_
*38 _005_
*39 _006_
*40 _007_
*41 _008_
*42 _009_
*43 _010_
*44 _011_
*45 _012_
*46 _013_
*47 _014_
*48 _015_
*49 _016_
*50 _017_
*51 _018_
*52 _019_
*53 _020_
*54 _021_
*55 _022_
*56 _023_
*57 _024_
*58 _025_
*59 _026_
*60 _027_
*61 _028_
*62 _029_
*63 _030_
*64 _031_
*65 _032_
*66 _033_
*67 _034_
*68 _035_
*69 _036_
*70 _037_
*71 _038_
*72 _039_
*73 _040_
*74 _041_
*75 _042_
*76 _043_
*77 _044_
*78 _045_
*79 _046_
*80 _047_
*81 _048_
*82 _049_
*83 _050_
*84 _051_
*85 _052_
*86 _053_
*87 _054_
*88 _055_
*89 _056_
*90 _057_
*91 _058_
*92 _059_
*93 _060_
*94 _061_
*95 _062_
*96 _063_
*97 _064_
*98 _065_
*99 _066_
*100 _067_
*101 _068_
*102 _069_
*103 _070_
*104 _071_
*105 _072_
*106 _073_
*107 _074_
*108 _075_
*109 _076_
*110 _077_
*111 _078_
*112 _079_
*113 _080_
*114 _081_
*115 _082_
*116 _083_
*117 _084_
*118 _085_
*119 clknet_0_clkin
*120 clknet_2_0__leaf_clkin
*121 clknet_2_1__leaf_clkin
*122 clknet_2_2__leaf_clkin
*123 clknet_2_3__leaf_clkin
*124 counter_sclk\[0\]
*125 counter_sclk\[1\]
*126 counter_sclk\[2\]
*127 data_count\[0\]
*128 data_count\[1\]
*129 data_count\[2\]
*130 mode_internal\[0\]
*131 mode_internal\[1\]
*132 net1
*133 net10
*134 net11
*135 net12
*136 net13
*137 net14
*138 net15
*139 net16
*140 net17
*141 net18
*142 net19
*143 net2
*144 net20
*145 net21
*146 net22
*147 net23
*148 net24
*149 net25
*150 net26
*151 net27
*152 net28
*153 net29
*154 net3
*155 net30
*156 net31
*157 net32
*158 net33
*159 net34
*160 net35
*161 net36
*162 net37
*163 net38
*164 net39
*165 net4
*166 net40
*167 net41
*168 net42
*169 net43
*170 net44
*171 net45
*172 net46
*173 net47
*174 net48
*175 net49
*176 net5
*177 net50
*178 net51
*179 net52
*180 net53
*181 net54
*182 net55
*183 net56
*184 net57
*185 net58
*186 net59
*187 net6
*188 net60
*189 net61
*190 net62
*191 net63
*192 net64
*193 net65
*194 net66
*195 net67
*196 net68
*197 net69
*198 net7
*199 net70
*200 net71
*201 net72
*202 net73
*203 net74
*204 net75
*205 net76
*206 net77
*207 net78
*208 net8
*209 net9
*210 rx
*211 sclk_internal
*212 shiftreg\[0\]
*213 shiftreg\[1\]
*214 shiftreg\[2\]
*215 shiftreg\[3\]
*216 shiftreg\[4\]
*217 shiftreg\[5\]
*218 shiftreg\[6\]
*219 shiftreg\[7\]
*220 shiftreg_rx\[0\]
*221 shiftreg_rx\[1\]
*222 shiftreg_rx\[2\]
*223 shiftreg_rx\[3\]
*224 shiftreg_rx\[4\]
*225 shiftreg_rx\[5\]
*226 shiftreg_rx\[6\]
*227 shiftreg_rx\[7\]
*228 state\[0\]
*229 state\[1\]
*230 state\[2\]
*231 FILLER_0_113
*232 FILLER_0_127
*233 FILLER_0_15
*234 FILLER_0_27
*235 FILLER_0_29
*236 FILLER_0_3
*237 FILLER_0_43
*238 FILLER_10_103
*239 FILLER_10_27
*240 FILLER_10_42
*241 FILLER_10_56
*242 FILLER_10_64
*243 FILLER_10_7
*244 FILLER_10_80
*245 FILLER_10_85
*246 FILLER_10_97
*247 FILLER_11_106
*248 FILLER_11_113
*249 FILLER_11_121
*250 FILLER_11_27
*251 FILLER_11_49
*252 FILLER_11_55
*253 FILLER_11_77
*254 FILLER_11_93
*255 FILLER_11_97
*256 FILLER_12_126
*257 FILLER_12_23
*258 FILLER_12_27
*259 FILLER_12_51
*260 FILLER_12_75
*261 FILLER_12_80
*262 FILLER_12_93
*263 FILLER_13_103
*264 FILLER_13_126
*265 FILLER_13_3
*266 FILLER_13_47
*267 FILLER_13_65
*268 FILLER_14_111
*269 FILLER_14_127
*270 FILLER_14_3
*271 FILLER_14_38
*272 FILLER_14_7
*273 FILLER_14_73
*274 FILLER_15_11
*275 FILLER_15_122
*276 FILLER_15_42
*277 FILLER_15_54
*278 FILLER_15_57
*279 FILLER_15_75
*280 FILLER_16_123
*281 FILLER_16_127
*282 FILLER_16_27
*283 FILLER_16_46
*284 FILLER_16_58
*285 FILLER_16_75
*286 FILLER_16_83
*287 FILLER_17_10
*288 FILLER_17_104
*289 FILLER_17_113
*290 FILLER_17_125
*291 FILLER_17_32
*292 FILLER_17_57
*293 FILLER_17_73
*294 FILLER_18_101
*295 FILLER_18_113
*296 FILLER_18_125
*297 FILLER_18_18
*298 FILLER_18_26
*299 FILLER_18_29
*300 FILLER_18_3
*301 FILLER_18_41
*302 FILLER_18_70
*303 FILLER_18_82
*304 FILLER_18_9
*305 FILLER_19_106
*306 FILLER_19_113
*307 FILLER_19_125
*308 FILLER_19_15
*309 FILLER_19_27
*310 FILLER_19_3
*311 FILLER_19_39
*312 FILLER_19_45
*313 FILLER_19_55
*314 FILLER_19_74
*315 FILLER_1_15
*316 FILLER_1_3
*317 FILLER_1_90
*318 FILLER_20_116
*319 FILLER_20_15
*320 FILLER_20_27
*321 FILLER_20_29
*322 FILLER_20_3
*323 FILLER_20_41
*324 FILLER_20_61
*325 FILLER_20_73
*326 FILLER_20_81
*327 FILLER_20_85
*328 FILLER_21_105
*329 FILLER_21_113
*330 FILLER_21_118
*331 FILLER_21_126
*332 FILLER_21_15
*333 FILLER_21_27
*334 FILLER_21_29
*335 FILLER_21_3
*336 FILLER_21_41
*337 FILLER_21_48
*338 FILLER_21_55
*339 FILLER_21_57
*340 FILLER_21_65
*341 FILLER_21_70
*342 FILLER_21_82
*343 FILLER_21_85
*344 FILLER_21_91
*345 FILLER_21_97
*346 FILLER_2_15
*347 FILLER_2_19
*348 FILLER_2_3
*349 FILLER_2_38
*350 FILLER_2_97
*351 FILLER_3_102
*352 FILLER_3_113
*353 FILLER_3_124
*354 FILLER_3_15
*355 FILLER_3_23
*356 FILLER_3_3
*357 FILLER_3_34
*358 FILLER_3_71
*359 FILLER_4_121
*360 FILLER_4_29
*361 FILLER_4_3
*362 FILLER_4_7
*363 FILLER_4_81
*364 FILLER_5_113
*365 FILLER_5_117
*366 FILLER_5_127
*367 FILLER_5_18
*368 FILLER_5_53
*369 FILLER_5_57
*370 FILLER_5_61
*371 FILLER_5_7
*372 FILLER_5_70
*373 FILLER_5_82
*374 FILLER_5_99
*375 FILLER_6_126
*376 FILLER_6_3
*377 FILLER_6_38
*378 FILLER_6_59
*379 FILLER_6_71
*380 FILLER_6_81
*381 FILLER_6_85
*382 FILLER_7_122
*383 FILLER_7_43
*384 FILLER_7_52
*385 FILLER_7_62
*386 FILLER_7_68
*387 FILLER_7_89
*388 FILLER_8_27
*389 FILLER_8_41
*390 FILLER_8_59
*391 FILLER_8_99
*392 FILLER_9_101
*393 FILLER_9_109
*394 FILLER_9_122
*395 FILLER_9_23
*396 FILLER_9_3
*397 FILLER_9_33
*398 FILLER_9_57
*399 PHY_EDGE_ROW_0_Left_22
*400 PHY_EDGE_ROW_0_Right_0
*401 PHY_EDGE_ROW_10_Left_32
*402 PHY_EDGE_ROW_10_Right_10
*403 PHY_EDGE_ROW_11_Left_33
*404 PHY_EDGE_ROW_11_Right_11
*405 PHY_EDGE_ROW_12_Left_34
*406 PHY_EDGE_ROW_12_Right_12
*407 PHY_EDGE_ROW_13_Left_35
*408 PHY_EDGE_ROW_13_Right_13
*409 PHY_EDGE_ROW_14_Left_36
*410 PHY_EDGE_ROW_14_Right_14
*411 PHY_EDGE_ROW_15_Left_37
*412 PHY_EDGE_ROW_15_Right_15
*413 PHY_EDGE_ROW_16_Left_38
*414 PHY_EDGE_ROW_16_Right_16
*415 PHY_EDGE_ROW_17_Left_39
*416 PHY_EDGE_ROW_17_Right_17
*417 PHY_EDGE_ROW_18_Left_40
*418 PHY_EDGE_ROW_18_Right_18
*419 PHY_EDGE_ROW_19_Left_41
*420 PHY_EDGE_ROW_19_Right_19
*421 PHY_EDGE_ROW_1_Left_23
*422 PHY_EDGE_ROW_1_Right_1
*423 PHY_EDGE_ROW_20_Left_42
*424 PHY_EDGE_ROW_20_Right_20
*425 PHY_EDGE_ROW_21_Left_43
*426 PHY_EDGE_ROW_21_Right_21
*427 PHY_EDGE_ROW_2_Left_24
*428 PHY_EDGE_ROW_2_Right_2
*429 PHY_EDGE_ROW_3_Left_25
*430 PHY_EDGE_ROW_3_Right_3
*431 PHY_EDGE_ROW_4_Left_26
*432 PHY_EDGE_ROW_4_Right_4
*433 PHY_EDGE_ROW_5_Left_27
*434 PHY_EDGE_ROW_5_Right_5
*435 PHY_EDGE_ROW_6_Left_28
*436 PHY_EDGE_ROW_6_Right_6
*437 PHY_EDGE_ROW_7_Left_29
*438 PHY_EDGE_ROW_7_Right_7
*439 PHY_EDGE_ROW_8_Left_30
*440 PHY_EDGE_ROW_8_Right_8
*441 PHY_EDGE_ROW_9_Left_31
*442 PHY_EDGE_ROW_9_Right_9
*443 TAP_TAPCELL_ROW_0_44
*444 TAP_TAPCELL_ROW_0_45
*445 TAP_TAPCELL_ROW_0_46
*446 TAP_TAPCELL_ROW_0_47
*447 TAP_TAPCELL_ROW_10_66
*448 TAP_TAPCELL_ROW_10_67
*449 TAP_TAPCELL_ROW_11_68
*450 TAP_TAPCELL_ROW_11_69
*451 TAP_TAPCELL_ROW_12_70
*452 TAP_TAPCELL_ROW_12_71
*453 TAP_TAPCELL_ROW_13_72
*454 TAP_TAPCELL_ROW_13_73
*455 TAP_TAPCELL_ROW_14_74
*456 TAP_TAPCELL_ROW_14_75
*457 TAP_TAPCELL_ROW_15_76
*458 TAP_TAPCELL_ROW_15_77
*459 TAP_TAPCELL_ROW_16_78
*460 TAP_TAPCELL_ROW_16_79
*461 TAP_TAPCELL_ROW_17_80
*462 TAP_TAPCELL_ROW_17_81
*463 TAP_TAPCELL_ROW_18_82
*464 TAP_TAPCELL_ROW_18_83
*465 TAP_TAPCELL_ROW_19_84
*466 TAP_TAPCELL_ROW_19_85
*467 TAP_TAPCELL_ROW_1_48
*468 TAP_TAPCELL_ROW_1_49
*469 TAP_TAPCELL_ROW_20_86
*470 TAP_TAPCELL_ROW_20_87
*471 TAP_TAPCELL_ROW_21_88
*472 TAP_TAPCELL_ROW_21_89
*473 TAP_TAPCELL_ROW_21_90
*474 TAP_TAPCELL_ROW_21_91
*475 TAP_TAPCELL_ROW_2_50
*476 TAP_TAPCELL_ROW_2_51
*477 TAP_TAPCELL_ROW_3_52
*478 TAP_TAPCELL_ROW_3_53
*479 TAP_TAPCELL_ROW_4_54
*480 TAP_TAPCELL_ROW_4_55
*481 TAP_TAPCELL_ROW_5_56
*482 TAP_TAPCELL_ROW_5_57
*483 TAP_TAPCELL_ROW_6_58
*484 TAP_TAPCELL_ROW_6_59
*485 TAP_TAPCELL_ROW_7_60
*486 TAP_TAPCELL_ROW_7_61
*487 TAP_TAPCELL_ROW_8_62
*488 TAP_TAPCELL_ROW_8_63
*489 TAP_TAPCELL_ROW_9_64
*490 TAP_TAPCELL_ROW_9_65
*491 _086_
*492 _087_
*493 _088_
*494 _089_
*495 _090_
*496 _091_
*497 _092_
*498 _093_
*499 _094_
*500 _095_
*501 _096_
*502 _097_
*503 _098_
*504 _099_
*505 _100_
*506 _101_
*507 _102_
*508 _103_
*509 _104_
*510 _105_
*511 _106_
*512 _107_
*513 _108_
*514 _109_
*515 _110_
*516 _111_
*517 _112_
*518 _113_
*519 _114_
*520 _115_
*521 _116_
*522 _117_
*523 _118_
*524 _119_
*525 _120_
*526 _121_
*527 _122_
*528 _123_
*529 _124_
*530 _125_
*531 _126_
*532 _127_
*533 _128_
*534 _129_
*535 _130_
*536 _131_
*537 _132_
*538 _133_
*539 _134_
*540 _135_
*541 _136_
*542 _137_
*543 _138_
*544 _139_
*545 _140_
*546 _141_
*547 _142_
*548 _143_
*549 _144_
*550 _145_
*551 _146_
*552 _147_
*553 _148_
*554 _149_
*555 _150_
*556 _151_
*557 _152_
*558 _153_
*559 _154_
*560 _155_
*561 _156_
*562 _157_
*563 _158_
*564 _159_
*565 _160_
*566 _161_
*567 _162_
*568 _163_
*569 _164_
*570 _165_
*571 _166_
*572 _167_
*573 _168_
*574 _169_
*575 _170_
*576 _171_
*577 _172_
*578 _173_
*579 _174_
*580 _175_
*581 _176_
*582 _177_
*583 _178_
*584 _179_
*585 _180_
*586 _181_
*587 _182_
*588 _183_
*589 _184_
*590 _185_
*591 _186_
*592 _187_
*593 _188_
*594 _189_
*595 _190_
*596 _191_
*597 _192_
*598 _193_
*599 _194_
*600 _195_
*601 _196_
*602 _197_
*603 _198_
*604 _199_
*605 _200_
*606 _201_
*607 _202_
*608 _203_
*609 _204_
*610 _205_
*611 _206_
*612 _207_
*613 _208_
*614 _209_
*615 _210_
*616 _211_
*617 _212_
*618 _213_
*619 _214_
*620 clkbuf_0_clkin
*621 clkbuf_2_0__f_clkin
*622 clkbuf_2_1__f_clkin
*623 clkbuf_2_2__f_clkin
*624 clkbuf_2_3__f_clkin
*625 clkload0
*626 clkload1
*627 clkload2
*628 fanout30
*629 fanout31
*630 fanout32
*631 fanout33
*632 fanout34
*633 fanout35
*634 fanout36
*635 fanout37
*636 fanout38
*637 hold1
*638 hold10
*639 hold11
*640 hold12
*641 hold13
*642 hold14
*643 hold15
*644 hold16
*645 hold17
*646 hold18
*647 hold19
*648 hold2
*649 hold20
*650 hold21
*651 hold22
*652 hold23
*653 hold24
*654 hold25
*655 hold26
*656 hold27
*657 hold28
*658 hold29
*659 hold3
*660 hold30
*661 hold31
*662 hold32
*663 hold33
*664 hold34
*665 hold35
*666 hold36
*667 hold37
*668 hold38
*669 hold39
*670 hold4
*671 hold40
*672 hold5
*673 hold6
*674 hold7
*675 hold8
*676 hold9
*677 input1
*678 input10
*679 input11
*680 input12
*681 input13
*682 input14
*683 input15
*684 input2
*685 input3
*686 input4
*687 input5
*688 input6
*689 input7
*690 input8
*691 input9
*692 output16
*693 output17
*694 output18
*695 output19
*696 output20
*697 output21
*698 output22
*699 output23
*700 output24
*701 output25
*702 output26
*703 output27
*704 output28
*705 output29

*PORTS
clkin I
data_in[0] I
data_in[1] I
data_in[2] I
data_in[3] I
data_in[4] I
data_in[5] I
data_in[6] I
data_in[7] I
data_out[0] O
data_out[1] O
data_out[2] O
data_out[3] O
data_out[4] O
data_out[5] O
data_out[6] O
data_out[7] O
miso I
mode[0] I
mode[1] I
mosi O
reset I
sclk O
slave_select[0] O
slave_select[1] O
slave_select[2] O
slave_select[3] O
slave_select_in[0] I
slave_select_in[1] I
tx_enable I

*D_NET *3 0.00571123
*CONN
*P clkin I
*I *620:A I *D sky130_fd_sc_hd__clkbuf_16
*CAP
1 clkin 0.00270615
2 *620:A 0.00270615
3 *620:A data_out[0] 2.25951e-05
4 *620:A *494:B 0
5 *620:A *505:A1 0
6 *620:A *506:A1 0
7 *620:A *506:A2 0
8 *620:A *506:B2 0
9 *620:A *506:C1 0
10 *620:A *522:A 7.50697e-05
11 *620:A *523:A2 0
12 *620:A *560:A 0.000123566
13 *620:A *563:A1 6.75007e-05
14 *620:A *563:A2 0
15 *620:A *566:A 0
16 *620:A *568:A 0
17 *620:A *619:D 0
18 *620:A *662:A 1.01912e-05
19 *620:A *691:A 0
20 *620:A *73:49 0
21 *620:A *130:12 0
*RES
1 clkin *620:A 38.7109 
*END

*D_NET *4 0.00266769
*CONN
*P data_in[0] I
*I *677:A I *D sky130_fd_sc_hd__clkbuf_1
*CAP
1 data_in[0] 0.00110843
2 *677:A 0.00110843
3 *677:A data_out[6] 1.40306e-05
4 *677:A data_out[7] 0.000173083
5 *677:A *649:A 0.000237217
6 *677:A *685:A 0
7 *677:A *132:14 2.65105e-05
*RES
1 data_in[0] *677:A 41.05 
*END

*D_NET *5 0.0024964
*CONN
*P data_in[1] I
*I *684:A I *D sky130_fd_sc_hd__clkbuf_1
*CAP
1 data_in[1] 0.000758765
2 *684:A 0.000758765
3 *684:A *686:A 0
4 *684:A *687:A 0.000978868
*RES
1 data_in[1] *684:A 41.2286 
*END

*D_NET *6 0.00298155
*CONN
*P data_in[2] I
*I *685:A I *D sky130_fd_sc_hd__clkbuf_1
*CAP
1 data_in[2] 0.000928492
2 *685:A 0.000928492
3 *685:A *545:A1 6.42242e-05
4 *685:A *546:S 5.41794e-05
5 *685:A *547:A0 0.000230475
6 *685:A *547:A1 0.000170955
7 *685:A *548:A1 0
8 *685:A *599:D 0.000125724
9 *685:A *600:D 0.000126439
10 *685:A *601:RESET_B 0
11 *685:A *646:A 0
12 *685:A *672:A 1.17968e-05
13 *685:A *686:A 0
14 *685:A *92:68 0.000340773
15 *685:A *162:22 0
16 *685:A *162:24 0
17 *677:A *685:A 0
*RES
1 data_in[2] *685:A 34.675 
*END

*D_NET *7 0.00184205
*CONN
*P data_in[3] I
*I *686:A I *D sky130_fd_sc_hd__clkbuf_1
*CAP
1 data_in[3] 0.000572943
2 *686:A 0.000572943
3 *686:A *546:A0 0.000383295
4 *686:A *548:S 5.33005e-05
5 *686:A *549:A1 1.3142e-05
6 *686:A *601:RESET_B 5.33005e-05
7 *686:A *646:A 0.000193125
8 *686:A *132:14 0
9 *684:A *686:A 0
10 *685:A *686:A 0
*RES
1 data_in[3] *686:A 26.6929 
*END

*D_NET *8 0.00250537
*CONN
*P data_in[4] I
*I *687:A I *D sky130_fd_sc_hd__clkbuf_1
*CAP
1 data_in[4] 0.000671769
2 *687:A 0.000671769
3 *687:A *545:A0 0.000150625
4 *687:A *553:A0 0
5 *687:A *553:S 2.82057e-05
6 *687:A *688:A 4.1331e-06
7 *684:A *687:A 0.000978868
*RES
1 data_in[4] *687:A 40.2643 
*END

*D_NET *9 0.000676334
*CONN
*P data_in[5] I
*I *688:A I *D sky130_fd_sc_hd__clkbuf_1
*CAP
1 data_in[5] 0.0003361
2 *688:A 0.0003361
3 *688:A *545:A0 0
4 *688:A *689:A 0
5 *687:A *688:A 4.1331e-06
*RES
1 data_in[5] *688:A 20.0163 
*END

*D_NET *10 0.000563504
*CONN
*P data_in[6] I
*I *689:A I *D sky130_fd_sc_hd__clkbuf_1
*CAP
1 data_in[6] 0.000281752
2 *689:A 0.000281752
3 *689:A *690:A 0
4 *689:A *157:44 0
5 *688:A *689:A 0
*RES
1 data_in[6] *689:A 19.1056 
*END

*D_NET *11 0.000492518
*CONN
*P data_in[7] I
*I *690:A I *D sky130_fd_sc_hd__clkbuf_1
*CAP
1 data_in[7] 0.000246259
2 *690:A 0.000246259
3 *690:A mosi 0
4 *690:A *157:40 0
5 *689:A *690:A 0
*RES
1 data_in[7] *690:A 18.4985 
*END

*D_NET *12 0.000724586
*CONN
*P data_out[0] O
*I *692:X O *D sky130_fd_sc_hd__buf_2
*CAP
1 data_out[0] 0.000335026
2 *692:X 0.000335026
3 data_out[0] *691:A 3.19385e-05
4 *620:A data_out[0] 2.25951e-05
*RES
1 *692:X data_out[0] 20.891 
*END

*D_NET *13 0.000771715
*CONN
*P data_out[1] O
*I *693:X O *D sky130_fd_sc_hd__buf_2
*CAP
1 data_out[1] 0.000358652
2 *693:X 0.000358652
3 data_out[1] data_out[2] 5.44117e-05
4 data_out[1] *680:A 0
5 data_out[1] *693:A 0
*RES
1 *693:X data_out[1] 20.8888 
*END

*D_NET *14 0.000660412
*CONN
*P data_out[2] O
*I *694:X O *D sky130_fd_sc_hd__buf_2
*CAP
1 data_out[2] 0.000303
2 *694:X 0.000303
3 data_out[2] data_out[5] 0
4 data_out[2] *141:10 0
5 data_out[1] data_out[2] 5.44117e-05
*RES
1 *694:X data_out[2] 19.6044 
*END

*D_NET *15 0.00114366
*CONN
*P data_out[3] O
*I *695:X O *D sky130_fd_sc_hd__buf_2
*CAP
1 data_out[3] 0.000384323
2 *695:X 0.000384323
3 data_out[3] data_out[5] 7.34412e-05
4 data_out[3] *142:12 0.000301577
*RES
1 *695:X data_out[3] 22.6401 
*END

*D_NET *16 0.000880865
*CONN
*P data_out[4] O
*I *696:X O *D sky130_fd_sc_hd__buf_2
*CAP
1 data_out[4] 0.000440432
2 *696:X 0.000440432
*RES
1 *696:X data_out[4] 21.6393 
*END

*D_NET *17 0.00264118
*CONN
*P data_out[5] O
*I *697:X O *D sky130_fd_sc_hd__buf_2
*CAP
1 data_out[5] 0.00128387
2 *697:X 0.00128387
3 data_out[5] *539:A0 0
4 data_out[5] *639:A 0
5 data_out[5] *676:A 0
6 data_out[5] *73:65 0
7 data_out[5] *73:67 0
8 data_out[5] *105:31 0
9 data_out[2] data_out[5] 0
10 data_out[3] data_out[5] 7.34412e-05
*RES
1 *697:X data_out[5] 23.7836 
*END

*D_NET *18 0.00168195
*CONN
*P data_out[6] O
*I *698:X O *D sky130_fd_sc_hd__buf_2
*CAP
1 data_out[6] 0.00079444
2 *698:X 0.00079444
3 data_out[6] data_out[7] 0
4 data_out[6] *659:A 2.27416e-05
5 data_out[6] *698:A 5.62995e-05
6 *677:A data_out[6] 1.40306e-05
*RES
1 *698:X data_out[6] 26.1571 
*END

*D_NET *19 0.00136437
*CONN
*P data_out[7] O
*I *699:X O *D sky130_fd_sc_hd__buf_2
*CAP
1 data_out[7] 0.000566362
2 *699:X 0.000566362
3 data_out[7] *598:D 3.92757e-05
4 data_out[7] *649:A 0
5 data_out[7] *659:A 0
6 data_out[7] *699:A 1.92905e-05
7 data_out[6] data_out[7] 0
8 *677:A data_out[7] 0.000173083
*RES
1 *699:X data_out[7] 24.4786 
*END

*D_NET *20 0.00123782
*CONN
*P miso I
*I *691:A I *D sky130_fd_sc_hd__clkbuf_1
*CAP
1 miso 0.000398115
2 *691:A 0.000398115
3 *691:A *564:B 0.00021442
4 *691:A *640:A 1.02504e-05
5 *691:A *680:A 3.19385e-05
6 *691:A *139:10 0.000153047
7 data_out[0] *691:A 3.19385e-05
8 *620:A *691:A 0
*RES
1 miso *691:A 21.7504 
*END

*D_NET *21 0.000876965
*CONN
*P mode[0] I
*I *678:A I *D sky130_fd_sc_hd__clkbuf_1
*CAP
1 mode[0] 0.000438482
2 *678:A 0.000438482
3 *678:A *679:A 0
*RES
1 mode[0] *678:A 22.5679 
*END

*D_NET *22 0.000900682
*CONN
*P mode[1] I
*I *679:A I *D sky130_fd_sc_hd__clkbuf_1
*CAP
1 mode[1] 0.000448496
2 *679:A 0.000448496
3 *679:A *581:A1 3.69047e-06
4 *678:A *679:A 0
*RES
1 mode[1] *679:A 22.4429 
*END

*D_NET *23 0.000590044
*CONN
*P mosi O
*I *700:X O *D sky130_fd_sc_hd__buf_2
*CAP
1 mosi 0.000235853
2 *700:X 0.000235853
3 mosi *683:A 9.54485e-05
4 mosi *157:40 2.28904e-05
5 *690:A mosi 0
*RES
1 *700:X mosi 18.8741 
*END

*D_NET *24 0.000659178
*CONN
*P reset I
*I *680:A I *D sky130_fd_sc_hd__buf_1
*CAP
1 reset 0.00031362
2 *680:A 0.00031362
3 data_out[1] *680:A 0
4 *691:A *680:A 3.19385e-05
*RES
1 reset *680:A 21.391 
*END

*D_NET *25 0.000933679
*CONN
*P sclk O
*I *701:X O *D sky130_fd_sc_hd__buf_2
*CAP
1 sclk 0.00046684
2 *701:X 0.00046684
*RES
1 *701:X sclk 22.2464 
*END

*D_NET *26 0.000933679
*CONN
*P slave_select[0] O
*I *702:X O *D sky130_fd_sc_hd__buf_2
*CAP
1 slave_select[0] 0.00046684
2 *702:X 0.00046684
3 slave_select[0] *682:A 0
*RES
1 *702:X slave_select[0] 22.2464 
*END

*D_NET *27 0.00100896
*CONN
*P slave_select[1] O
*I *703:X O *D sky130_fd_sc_hd__buf_2
*CAP
1 slave_select[1] 0.000504479
2 *703:X 0.000504479
3 slave_select[1] *681:A 0
*RES
1 *703:X slave_select[1] 22.6571 
*END

*D_NET *28 0.00101351
*CONN
*P slave_select[2] O
*I *704:X O *D sky130_fd_sc_hd__buf_2
*CAP
1 slave_select[2] 0.000506753
2 *704:X 0.000506753
3 slave_select[2] slave_select[3] 0
4 slave_select[2] *681:A 0
*RES
1 *704:X slave_select[2] 22.6571 
*END

*D_NET *29 0.000930057
*CONN
*P slave_select[3] O
*I *705:X O *D sky130_fd_sc_hd__buf_2
*CAP
1 slave_select[3] 0.000459039
2 *705:X 0.000459039
3 slave_select[3] *682:A 0
4 slave_select[3] *137:36 1.1979e-05
5 slave_select[2] slave_select[3] 0
*RES
1 *705:X slave_select[3] 22.2464 
*END

*D_NET *30 0.00100038
*CONN
*P slave_select_in[0] I
*I *681:A I *D sky130_fd_sc_hd__buf_1
*CAP
1 slave_select_in[0] 0.000488817
2 *681:A 0.000488817
3 *681:A *704:A 0
4 *681:A *136:12 2.27416e-05
5 slave_select[1] *681:A 0
6 slave_select[2] *681:A 0
*RES
1 slave_select_in[0] *681:A 23.2643 
*END

*D_NET *31 0.000934941
*CONN
*P slave_select_in[1] I
*I *682:A I *D sky130_fd_sc_hd__buf_1
*CAP
1 slave_select_in[1] 0.000438897
2 *682:A 0.000438897
3 *682:A *702:A 5.71472e-05
4 slave_select[0] *682:A 0
5 slave_select[3] *682:A 0
*RES
1 slave_select_in[1] *682:A 22.4429 
*END

*D_NET *32 0.000582449
*CONN
*P tx_enable I
*I *683:A I *D sky130_fd_sc_hd__buf_1
*CAP
1 tx_enable 0.000216248
2 *683:A 0.000216248
3 *683:A *630:A 5.45041e-05
4 mosi *683:A 9.54485e-05
*RES
1 tx_enable *683:A 19.1056 
*END

*D_NET *33 0.00126395
*CONN
*I *606:D I *D sky130_fd_sc_hd__dfrtp_1
*I *517:Y O *D sky130_fd_sc_hd__nor2_1
*CAP
1 *606:D 0.000319545
2 *517:Y 0.000319545
3 *606:D *517:A 0.000267456
4 *606:D *517:B 0.0001399
5 *606:D *520:B1 9.69119e-06
6 *606:D *608:D 0.000176234
7 *606:D *115:28 1.46717e-05
8 *606:D *119:10 1.69115e-05
*RES
1 *517:Y *606:D 33.8857 
*END

*D_NET *34 0.000398582
*CONN
*I *607:D I *D sky130_fd_sc_hd__dfrtp_1
*I *520:Y O *D sky130_fd_sc_hd__a21oi_1
*CAP
1 *607:D 0.000136243
2 *520:Y 0.000136243
3 *607:D *520:A1 0
4 *607:D *622:A 5.62995e-05
5 *607:D *119:10 6.97972e-05
*RES
1 *520:Y *607:D 30.1893 
*END

*D_NET *35 0.000735993
*CONN
*I *608:D I *D sky130_fd_sc_hd__dfstp_1
*I *521:X O *D sky130_fd_sc_hd__a21o_1
*CAP
1 *608:D 0.000125649
2 *521:X 0.000125649
3 *608:D *517:A 0.000132366
4 *608:D *115:28 0.000176096
5 *606:D *608:D 0.000176234
*RES
1 *521:X *608:D 32.2071 
*END

*D_NET *36 0.00103227
*CONN
*I *619:D I *D sky130_fd_sc_hd__dfrtp_1
*I *523:X O *D sky130_fd_sc_hd__a21bo_1
*CAP
1 *619:D 0.000364971
2 *523:X 0.000364971
3 *619:D *522:B 1.32552e-05
4 *619:D *619:RESET_B 9.90367e-05
5 *619:D *85:12 7.32272e-05
6 *619:D *105:14 7.48091e-05
7 *619:D *161:8 1.00399e-05
8 *619:D *161:14 3.19595e-05
9 *620:A *619:D 0
*RES
1 *523:X *619:D 34.4214 
*END

*D_NET *37 0.000345503
*CONN
*I *583:D I *D sky130_fd_sc_hd__dfstp_1
*I *500:X O *D sky130_fd_sc_hd__a2bb2o_1
*CAP
1 *583:D 8.13014e-05
2 *500:X 8.13014e-05
3 *583:D *500:A1_N 6.81872e-05
4 *583:D *500:A2_N 1.69115e-05
5 *583:D *532:A4 4.25716e-05
6 *583:D *116:16 5.52302e-05
*RES
1 *500:X *583:D 29.7786 
*END

*D_NET *38 0.0016294
*CONN
*I *584:D I *D sky130_fd_sc_hd__dfrtp_2
*I *497:X O *D sky130_fd_sc_hd__o21a_1
*CAP
1 *584:D 0.000762119
2 *497:X 0.000762119
3 *584:D *496:A 0.000105163
4 *584:D *497:A1 0
5 *584:D *584:RESET_B 0
6 *584:D *229:8 0
*RES
1 *497:X *584:D 40.725 
*END

*D_NET *39 0.0010369
*CONN
*I *585:D I *D sky130_fd_sc_hd__dfrtp_1
*I *502:X O *D sky130_fd_sc_hd__a32o_1
*CAP
1 *585:D 0.000464701
2 *502:X 0.000464701
3 *585:D *500:A2_N 0
4 *585:D *584:RESET_B 0
5 *585:D *117:10 3.92854e-05
6 *585:D *163:37 0
7 *585:D *163:62 0
8 *585:D *228:16 6.04069e-05
9 *585:D *228:40 7.80714e-06
*RES
1 *502:X *585:D 35.8679 
*END

*D_NET *40 0.000686555
*CONN
*I *586:D I *D sky130_fd_sc_hd__dfxtp_1
*I *528:Y O *D sky130_fd_sc_hd__nand2_1
*CAP
1 *586:D 0.000168653
2 *528:Y 0.000168653
3 *586:D *528:A 0.000197984
4 *586:D *530:B1 9.11365e-06
5 *586:D *586:CLK 1.64343e-05
6 *586:D *86:23 0
7 *586:D *127:25 0.000125717
8 *586:D *128:19 0
*RES
1 *528:Y *586:D 31.533 
*END

*D_NET *41 0.000702857
*CONN
*I *587:D I *D sky130_fd_sc_hd__dfxtp_1
*I *530:X O *D sky130_fd_sc_hd__a2bb2o_1
*CAP
1 *587:D 0.000256366
2 *530:X 0.000256366
3 *587:D *525:A 3.92757e-05
4 *587:D *587:CLK 7.58664e-05
5 *587:D *87:6 5.71472e-05
6 *587:D *123:39 1.78353e-05
*RES
1 *530:X *587:D 32.6759 
*END

*D_NET *42 0.00108396
*CONN
*I *588:D I *D sky130_fd_sc_hd__dfxtp_1
*I *532:X O *D sky130_fd_sc_hd__a41o_1
*CAP
1 *588:D 0.000281111
2 *532:X 0.000281111
3 *588:D *501:D 5.52238e-05
4 *588:D *532:B1 0.000341974
5 *588:D *562:B1 5.12538e-05
6 *588:D *589:CLK 0
7 *588:D *115:18 1.74352e-05
8 *588:D *116:48 5.5855e-05
9 *588:D *163:14 0
10 *588:D *163:20 0
*RES
1 *532:X *588:D 33.908 
*END

*D_NET *43 0.00101454
*CONN
*I *589:D I *D sky130_fd_sc_hd__dfrtp_1
*I *533:Y O *D sky130_fd_sc_hd__nand2_1
*CAP
1 *589:D 0.000184601
2 *533:Y 0.000184601
3 *589:D *494:A 0.000121573
4 *589:D *499:B 1.21258e-05
5 *589:D *533:B 0.000106882
6 *589:D *589:RESET_B 2.89016e-05
7 *589:D *115:61 2.72449e-05
8 *589:D *115:72 1.40849e-05
9 *589:D *119:36 0.000308592
10 *589:D *155:8 2.59355e-05
*RES
1 *533:Y *589:D 32.7429 
*END

*D_NET *44 0.000500402
*CONN
*I *641:A I *D sky130_fd_sc_hd__dlygate4sd3_1
*I *534:X O *D sky130_fd_sc_hd__mux2_1
*CAP
1 *641:A 0.000169183
2 *534:X 0.000169183
3 *641:A *534:S 2.14658e-05
4 *641:A *590:D 5.52302e-05
5 *641:A *160:10 8.53409e-05
*RES
1 *534:X *641:A 22.3321 
*END

*D_NET *45 0.00157719
*CONN
*I *651:A I *D sky130_fd_sc_hd__dlygate4sd3_1
*I *535:X O *D sky130_fd_sc_hd__mux2_1
*CAP
1 *651:A 0.000649436
2 *535:X 0.000649436
3 *651:A *591:D 1.00073e-05
4 *651:A *591:RESET_B 2.52688e-05
5 *651:A *650:A 1.71369e-05
6 *651:A *73:61 5.04705e-05
7 *651:A *122:53 7.3237e-05
8 *651:A *122:66 0.000102197
9 *651:A *160:28 0
*RES
1 *535:X *651:A 36.35 
*END

*D_NET *46 0.000603317
*CONN
*I *676:A I *D sky130_fd_sc_hd__dlygate4sd3_1
*I *536:X O *D sky130_fd_sc_hd__mux2_1
*CAP
1 *676:A 0.000174545
2 *536:X 0.000174545
3 *676:A *539:A0 0.000228558
4 *676:A *592:D 2.56694e-05
5 *676:A *73:65 0
6 data_out[5] *676:A 0
*RES
1 *536:X *676:A 31.4214 
*END

*D_NET *47 0.000628565
*CONN
*I *643:A I *D sky130_fd_sc_hd__dlygate4sd3_1
*I *537:X O *D sky130_fd_sc_hd__mux2_1
*CAP
1 *643:A 0.00010841
2 *537:X 0.00010841
3 *643:A *73:94 0.000230482
4 *643:A *223:24 0.000181262
*RES
1 *537:X *643:A 22.3321 
*END

*D_NET *48 0.000167414
*CONN
*I *674:A I *D sky130_fd_sc_hd__dlygate4sd3_1
*I *538:X O *D sky130_fd_sc_hd__mux2_1
*CAP
1 *674:A 8.37072e-05
2 *538:X 8.37072e-05
*RES
1 *538:X *674:A 19.975 
*END

*D_NET *49 0.00109741
*CONN
*I *639:A I *D sky130_fd_sc_hd__dlygate4sd3_1
*I *539:X O *D sky130_fd_sc_hd__mux2_1
*CAP
1 *639:A 0.000351414
2 *539:X 0.000351414
3 *639:A *595:D 6.62898e-05
4 *639:A *631:A 0.000224519
5 *639:A *73:67 0.000103775
6 data_out[5] *639:A 0
*RES
1 *539:X *639:A 34.8321 
*END

*D_NET *50 0.00224722
*CONN
*I *596:D I *D sky130_fd_sc_hd__dfrtp_1
*I *540:X O *D sky130_fd_sc_hd__mux2_1
*CAP
1 *596:D 0.000631188
2 *540:X 0.000631188
3 *596:D *578:A 0.000495454
4 *596:D *596:CLK 3.41517e-06
5 *596:D *596:RESET_B 0.000215029
6 *596:D *653:A 0.000270943
*RES
1 *540:X *596:D 39.0107 
*END

*D_NET *51 0.000402982
*CONN
*I *659:A I *D sky130_fd_sc_hd__dlygate4sd3_1
*I *541:X O *D sky130_fd_sc_hd__mux2_1
*CAP
1 *659:A 0.00018133
2 *541:X 0.00018133
3 *659:A *578:A 1.15281e-05
4 *659:A *653:A 6.05161e-06
5 *659:A *698:A 0
6 data_out[6] *659:A 2.27416e-05
7 data_out[7] *659:A 0
*RES
1 *541:X *659:A 30.3143 
*END

*D_NET *52 0.00059713
*CONN
*I *598:D I *D sky130_fd_sc_hd__dfrtp_1
*I *544:X O *D sky130_fd_sc_hd__a21bo_1
*CAP
1 *598:D 0.000203034
2 *544:X 0.000203034
3 *598:D *541:A0 0
4 *598:D *541:S 0
5 *598:D *547:A1 0
6 *598:D *649:A 9.60918e-05
7 *598:D *121:22 5.56943e-05
8 *598:D *147:12 0
9 data_out[7] *598:D 3.92757e-05
*RES
1 *544:X *598:D 31.9036 
*END

*D_NET *53 0.000411894
*CONN
*I *599:D I *D sky130_fd_sc_hd__dfrtp_1
*I *546:X O *D sky130_fd_sc_hd__mux2_1
*CAP
1 *599:D 0.000104481
2 *546:X 0.000104481
3 *599:D *544:B1_N 5.52302e-05
4 *599:D *601:RESET_B 2.19778e-05
5 *685:A *599:D 0.000125724
*RES
1 *546:X *599:D 29.7786 
*END

*D_NET *54 0.000851985
*CONN
*I *600:D I *D sky130_fd_sc_hd__dfrtp_1
*I *548:X O *D sky130_fd_sc_hd__mux2_1
*CAP
1 *600:D 0.000310348
2 *548:X 0.000310348
3 *600:D *545:A1 5.52238e-05
4 *600:D *600:RESET_B 4.96254e-05
5 *600:D *162:24 0
6 *685:A *600:D 0.000126439
*RES
1 *548:X *600:D 33.1893 
*END

*D_NET *55 0.000210827
*CONN
*I *601:D I *D sky130_fd_sc_hd__dfrtp_1
*I *550:X O *D sky130_fd_sc_hd__mux2_1
*CAP
1 *601:D 5.99292e-05
2 *550:X 5.99292e-05
3 *601:D *550:A0 0
4 *601:D *647:A 8.00806e-05
5 *601:D *92:49 1.08881e-05
*RES
1 *550:X *601:D 28.8188 
*END

*D_NET *56 0.000347149
*CONN
*I *602:D I *D sky130_fd_sc_hd__dfrtp_1
*I *552:X O *D sky130_fd_sc_hd__mux2_1
*CAP
1 *602:D 8.14492e-05
2 *552:X 8.14492e-05
3 *602:D *551:A0 0.000126639
4 *602:D *602:CLK 5.76121e-05
*RES
1 *552:X *602:D 21.2071 
*END

*D_NET *57 0.000412914
*CONN
*I *603:D I *D sky130_fd_sc_hd__dfrtp_1
*I *554:X O *D sky130_fd_sc_hd__mux2_1
*CAP
1 *603:D 0.000116948
2 *554:X 0.000116948
3 *603:D *550:A1 0.000125717
4 *603:D *552:A1 5.33005e-05
5 *603:D *554:A1 0
*RES
1 *554:X *603:D 29.7786 
*END

*D_NET *58 0.000588749
*CONN
*I *604:D I *D sky130_fd_sc_hd__dfrtp_1
*I *556:X O *D sky130_fd_sc_hd__mux2_1
*CAP
1 *604:D 0.000214078
2 *556:X 0.000214078
3 *604:D *550:A1 0
4 *604:D *556:A0 0
5 *604:D *556:A1 5.62995e-05
6 *604:D *644:A 0.000104294
*RES
1 *556:X *604:D 31.0107 
*END

*D_NET *59 0.000908973
*CONN
*I *605:D I *D sky130_fd_sc_hd__dfrtp_1
*I *558:X O *D sky130_fd_sc_hd__mux2_1
*CAP
1 *605:D 0.000435088
2 *558:X 0.000435088
3 *605:D *585:CLK 2.79092e-05
4 *605:D *635:A 1.08881e-05
*RES
1 *558:X *605:D 33.0509 
*END

*D_NET *60 0.000498855
*CONN
*I *609:D I *D sky130_fd_sc_hd__dfrtp_1
*I *565:X O *D sky130_fd_sc_hd__mux2_1
*CAP
1 *609:D 0.000199906
2 *565:X 0.000199906
3 *609:D *135:14 9.90431e-05
4 *609:D *160:24 0
5 *609:D *160:26 0
*RES
1 *565:X *609:D 30.7964 
*END

*D_NET *61 0.000633137
*CONN
*I *610:D I *D sky130_fd_sc_hd__dfrtp_1
*I *567:X O *D sky130_fd_sc_hd__mux2_1
*CAP
1 *610:D 0.00025363
2 *567:X 0.00025363
3 *610:D *534:S 0
4 *610:D *567:A0 0
5 *610:D *610:RESET_B 0.000125877
6 *610:D *105:25 0
*RES
1 *567:X *610:D 32.5464 
*END

*D_NET *62 0.000252546
*CONN
*I *611:D I *D sky130_fd_sc_hd__dfrtp_1
*I *569:X O *D sky130_fd_sc_hd__mux2_1
*CAP
1 *611:D 0.000126273
2 *569:X 0.000126273
3 *611:D *592:D 0
*RES
1 *569:X *611:D 29.7786 
*END

*D_NET *63 0.000592757
*CONN
*I *612:D I *D sky130_fd_sc_hd__dfrtp_1
*I *571:X O *D sky130_fd_sc_hd__mux2_1
*CAP
1 *612:D 0.000156992
2 *571:X 0.000156992
3 *612:D *539:A0 2.72545e-05
4 *612:D *571:S 2.84109e-05
5 *612:D *612:CLK 8.44104e-05
6 *612:D *105:31 0.000124083
7 *612:D *161:14 1.46148e-05
*RES
1 *571:X *612:D 30.725 
*END

*D_NET *64 0.000861558
*CONN
*I *613:D I *D sky130_fd_sc_hd__dfrtp_1
*I *573:X O *D sky130_fd_sc_hd__mux2_1
*CAP
1 *613:D 0.0004188
2 *573:X 0.0004188
3 *613:D *537:A1 1.71774e-05
4 *613:D *573:A1 6.78055e-06
5 *613:D *594:CLK 0
*RES
1 *573:X *613:D 33.2607 
*END

*D_NET *65 0.000524986
*CONN
*I *614:D I *D sky130_fd_sc_hd__dfrtp_1
*I *575:X O *D sky130_fd_sc_hd__mux2_1
*CAP
1 *614:D 0.000190106
2 *575:X 0.000190106
3 *614:D *73:67 0
4 *614:D *158:49 0
5 *614:D *223:24 0.000144773
*RES
1 *575:X *614:D 30.6 
*END

*D_NET *66 0.000786867