*SPEF "ieee 1481-1999"
*DESIGN "Master"
*DATE "23:47:36 Thursday June 11, 2026"
*VENDOR "The OpenROAD Project"
*PROGRAM "OpenROAD"
*VERSION "edf00dff99f6c40d67a30c0e22a8191c5d2ed9d6"
*DESIGN_FLOW "NAME_SCOPE LOCAL" "PIN_CAP NONE"
*DIVIDER /
*DELIMITER :
*BUS_DELIMITER []
*T_UNIT 1 NS
*C_UNIT 1 PF
*R_UNIT 1 OHM
*L_UNIT 1 HENRY

*NAME_MAP
*3 clkin
*4 data_in[0]
*5 data_in[1]
*6 data_in[2]
*7 data_in[3]
*8 data_in[4]
*9 data_in[5]
*10 data_in[6]
*11 data_in[7]
*12 data_out[0]
*13 data_out[1]
*14 data_out[2]
*15 data_out[3]
*16 data_out[4]
*17 data_out[5]
*18 data_out[6]
*19 data_out[7]
*20 miso
*21 mode[0]
*22 mode[1]
*23 mosi
*24 reset
*25 sclk
*26 slave_select[0]
*27 slave_select[1]
*28 slave_select[2]
*29 slave_select[3]
*30 slave_select_in[0]
*31 slave_select_in[1]
*32 tx_enable
*33 _000_
*34 _001_
*35 _002_
*36 _003_
*37 _004_
*38 _005_
*39 _006_
*40 _007_
*41 _008_
*42 _009_
*43 _010_
*44 _011_
*45 _012_
*46 _013_
*47 _014_
*48 _015_
*49 _016_
*50 _017_
*51 _018_
*52 _019_
*53 _020_
*54 _021_
*55 _022_
*56 _023_
*57 _024_
*58 _025_
*59 _026_
*60 _027_
*61 _028_
*62 _029_
*63 _030_
*64 _031_
*65 _032_
*66 _033_
*67 _034_
*68 _035_
*69 _036_
*70 _037_
*71 _038_
*72 _039_
*73 _040_
*74 _041_
*75 _042_
*76 _043_
*77 _044_
*78 _045_
*79 _046_
*80 _047_
*81 _048_
*82 _049_
*83 _050_
*84 _051_
*85 _052_
*86 _053_
*87 _054_
*88 _055_
*89 _056_
*90 _057_
*91 _058_
*92 _059_
*93 _060_
*94 _061_
*95 _062_
*96 _063_
*97 _064_
*98 _065_
*99 _066_
*100 _067_
*101 _068_
*102 _069_
*103 _070_
*104 _071_
*105 _072_
*106 _073_
*107 _074_
*108 _075_
*109 _076_
*110 _077_
*111 _078_
*112 _079_
*113 _080_
*114 _081_
*115 _082_
*116 _083_
*117 _084_
*118 _085_
*119 clknet_0_clkin
*120 clknet_2_0__leaf_clkin
*121 clknet_2_1__leaf_clkin
*122 clknet_2_2__leaf_clkin
*123 clknet_2_3__leaf_clkin
*124 counter_sclk\[0\]
*125 counter_sclk\[1\]
*126 counter_sclk\[2\]
*127 data_count\[0\]
*128 data_count\[1\]
*129 data_count\[2\]
*130 mode_internal\[0\]
*131 mode_internal\[1\]
*132 net1
*133 net10
*134 net11
*135 net12
*136 net13
*137 net14
*138 net15
*139 net16
*140 net17
*141 net18
*142 net19
*143 net2
*144 net20
*145 net21
*146 net22
*147 net23
*148 net24
*149 net25
*150 net26
*151 net27
*152 net28
*153 net29
*154 net3
*155 net30
*156 net31
*157 net32
*158 net33
*159 net34
*160 net35
*161 net36
*162 net37
*163 net38
*164 net39
*165 net4
*166 net40
*167 net41
*168 net42
*169 net43
*170 net44
*171 net45
*172 net46
*173 net47
*174 net48
*175 net49
*176 net5
*177 net50
*178 net51
*179 net52
*180 net53
*181 net54
*182 net55
*183 net56
*184 net57
*185 net58
*186 net59
*187 net6
*188 net60
*189 net61
*190 net62
*191 net63
*192 net64
*193 net65
*194 net66
*195 net67
*196 net68
*197 net69
*198 net7
*199 net70
*200 net71
*201 net72
*202 net73
*203 net74
*204 net75
*205 net76
*206 net77
*207 net78
*208 net8
*209 net9
*210 rx
*211 sclk_internal
*212 shiftreg\[0\]
*213 shiftreg\[1\]
*214 shiftreg\[2\]
*215 shiftreg\[3\]
*216 shiftreg\[4\]
*217 shiftreg\[5\]
*218 shiftreg\[6\]
*219 shiftreg\[7\]
*220 shiftreg_rx\[0\]
*221 shiftreg_rx\[1\]
*222 shiftreg_rx\[2\]
*223 shiftreg_rx\[3\]
*224 shiftreg_rx\[4\]
*225 shiftreg_rx\[5\]
*226 shiftreg_rx\[6\]
*227 shiftreg_rx\[7\]
*228 state\[0\]
*229 state\[1\]
*230 state\[2\]
*231 FILLER_0_113
*232 FILLER_0_127
*233 FILLER_0_15
*234 FILLER_0_27
*235 FILLER_0_29
*236 FILLER_0_3
*237 FILLER_0_43
*238 FILLER_10_103
*239 FILLER_10_27
*240 FILLER_10_42
*241 FILLER_10_56
*242 FILLER_10_64
*243 FILLER_10_7
*244 FILLER_10_80
*245 FILLER_10_85
*246 FILLER_10_97
*247 FILLER_11_106
*248 FILLER_11_113
*249 FILLER_11_121
*250 FILLER_11_27
*251 FILLER_11_49
*252 FILLER_11_55
*253 FILLER_11_77
*254 FILLER_11_93
*255 FILLER_11_97
*256 FILLER_12_126
*257 FILLER_12_23
*258 FILLER_12_27
*259 FILLER_12_51
*260 FILLER_12_75
*261 FILLER_12_80
*262 FILLER_12_93
*263 FILLER_13_103
*264 FILLER_13_126
*265 FILLER_13_3
*266 FILLER_13_47
*267 FILLER_13_65
*268 FILLER_14_111
*269 FILLER_14_127
*270 FILLER_14_3
*271 FILLER_14_38
*272 FILLER_14_7
*273 FILLER_14_73
*274 FILLER_15_11
*275 FILLER_15_122
*276 FILLER_15_42
*277 FILLER_15_54
*278 FILLER_15_57
*279 FILLER_15_75
*280 FILLER_16_123
*281 FILLER_16_127
*282 FILLER_16_27
*283 FILLER_16_46
*284 FILLER_16_58
*285 FILLER_16_75
*286 FILLER_16_83
*287 FILLER_17_10
*288 FILLER_17_104
*289 FILLER_17_113
*290 FILLER_17_125
*291 FILLER_17_32
*292 FILLER_17_57
*293 FILLER_17_73
*294 FILLER_18_101
*295 FILLER_18_113
*296 FILLER_18_125
*297 FILLER_18_18
*298 FILLER_18_26
*299 FILLER_18_29
*300 FILLER_18_3
*301 FILLER_18_41
*302 FILLER_18_70
*303 FILLER_18_82
*304 FILLER_18_9
*305 FILLER_19_106
*306 FILLER_19_113
*307 FILLER_19_125
*308 FILLER_19_15
*309 FILLER_19_27
*310 FILLER_19_3
*311 FILLER_19_39
*312 FILLER_19_45
*313 FILLER_19_55
*314 FILLER_19_74
*315 FILLER_1_15
*316 FILLER_1_3
*317 FILLER_1_90
*318 FILLER_20_116
*319 FILLER_20_15
*320 FILLER_20_27
*321 FILLER_20_29
*322 FILLER_20_3
*323 FILLER_20_41
*324 FILLER_20_61
*325 FILLER_20_73
*326 FILLER_20_81
*327 FILLER_20_85
*328 FILLER_21_105
*329 FILLER_21_113
*330 FILLER_21_118
*331 FILLER_21_126
*332 FILLER_21_15
*333 FILLER_21_27
*334 FILLER_21_29
*335 FILLER_21_3
*336 FILLER_21_41
*337 FILLER_21_48
*338 FILLER_21_55
*339 FILLER_21_57
*340 FILLER_21_65
*341 FILLER_21_70
*342 FILLER_21_82
*343 FILLER_21_85
*344 FILLER_21_91
*345 FILLER_21_97
*346 FILLER_2_15
*347 FILLER_2_19
*348 FILLER_2_3
*349 FILLER_2_38
*350 FILLER_2_97
*351 FILLER_3_102
*352 FILLER_3_113
*353 FILLER_3_124
*354 FILLER_3_15
*355 FILLER_3_23
*356 FILLER_3_3
*357 FILLER_3_34
*358 FILLER_3_71
*359 FILLER_4_121
*360 FILLER_4_29
*361 FILLER_4_3
*362 FILLER_4_7
*363 FILLER_4_81
*364 FILLER_5_113
*365 FILLER_5_117
*366 FILLER_5_127
*367 FILLER_5_18
*368 FILLER_5_53
*369 FILLER_5_57
*370 FILLER_5_61
*371 FILLER_5_7
*372 FILLER_5_70
*373 FILLER_5_82
*374 FILLER_5_99
*375 FILLER_6_126
*376 FILLER_6_3
*377 FILLER_6_38
*378 FILLER_6_59
*379 FILLER_6_71
*380 FILLER_6_81
*381 FILLER_6_85
*382 FILLER_7_122
*383 FILLER_7_43
*384 FILLER_7_52
*385 FILLER_7_62
*386 FILLER_7_68
*387 FILLER_7_89
*388 FILLER_8_27
*389 FILLER_8_41
*390 FILLER_8_59
*391 FILLER_8_99
*392 FILLER_9_101
*393 FILLER_9_109
*394 FILLER_9_122
*395 FILLER_9_23
*396 FILLER_9_3
*397 FILLER_9_33
*398 FILLER_9_57
*399 PHY_EDGE_ROW_0_Left_22
*400 PHY_EDGE_ROW_0_Right_0
*401 PHY_EDGE_ROW_10_Left_32
*402 PHY_EDGE_ROW_10_Right_10
*403 PHY_EDGE_ROW_11_Left_33
*404 PHY_EDGE_ROW_11_Right_11
*405 PHY_EDGE_ROW_12_Left_34
*406 PHY_EDGE_ROW_12_Right_12
*407 PHY_EDGE_ROW_13_Left_35
*408 PHY_EDGE_ROW_13_Right_13
*409 PHY_EDGE_ROW_14_Left_36
*410 PHY_EDGE_ROW_14_Right_14
*411 PHY_EDGE_ROW_15_Left_37
*412 PHY_EDGE_ROW_15_Right_15
*413 PHY_EDGE_ROW_16_Left_38
*414 PHY_EDGE_ROW_16_Right_16
*415 PHY_EDGE_ROW_17_Left_39
*416 PHY_EDGE_ROW_17_Right_17
*417 PHY_EDGE_ROW_18_Left_40
*418 PHY_EDGE_ROW_18_Right_18
*419 PHY_EDGE_ROW_19_Left_41
*420 PHY_EDGE_ROW_19_Right_19
*421 PHY_EDGE_ROW_1_Left_23
*422 PHY_EDGE_ROW_1_Right_1
*423 PHY_EDGE_ROW_20_Left_42
*424 PHY_EDGE_ROW_20_Right_20
*425 PHY_EDGE_ROW_21_Left_43
*426 PHY_EDGE_ROW_21_Right_21
*427 PHY_EDGE_ROW_2_Left_24
*428 PHY_EDGE_ROW_2_Right_2
*429 PHY_EDGE_ROW_3_Left_25
*430 PHY_EDGE_ROW_3_Right_3
*431 PHY_EDGE_ROW_4_Left_26
*432 PHY_EDGE_ROW_4_Right_4
*433 PHY_EDGE_ROW_5_Left_27
*434 PHY_EDGE_ROW_5_Right_5
*435 PHY_EDGE_ROW_6_Left_28
*436 PHY_EDGE_ROW_6_Right_6
*437 PHY_EDGE_ROW_7_Left_29
*438 PHY_EDGE_ROW_7_Right_7
*439 PHY_EDGE_ROW_8_Left_30
*440 PHY_EDGE_ROW_8_Right_8
*441 PHY_EDGE_ROW_9_Left_31
*442 PHY_EDGE_ROW_9_Right_9
*443 TAP_TAPCELL_ROW_0_44
*444 TAP_TAPCELL_ROW_0_45
*445 TAP_TAPCELL_ROW_0_46
*446 TAP_TAPCELL_ROW_0_47
*447 TAP_TAPCELL_ROW_10_66
*448 TAP_TAPCELL_ROW_10_67
*449 TAP_TAPCELL_ROW_11_68
*450 TAP_TAPCELL_ROW_11_69
*451 TAP_TAPCELL_ROW_12_70
*452 TAP_TAPCELL_ROW_12_71
*453 TAP_TAPCELL_ROW_13_72
*454 TAP_TAPCELL_ROW_13_73
*455 TAP_TAPCELL_ROW_14_74
*456 TAP_TAPCELL_ROW_14_75
*457 TAP_TAPCELL_ROW_15_76
*458 TAP_TAPCELL_ROW_15_77
*459 TAP_TAPCELL_ROW_16_78
*460 TAP_TAPCELL_ROW_16_79
*461 TAP_TAPCELL_ROW_17_80
*462 TAP_TAPCELL_ROW_17_81
*463 TAP_TAPCELL_ROW_18_82
*464 TAP_TAPCELL_ROW_18_83
*465 TAP_TAPCELL_ROW_19_84
*466 TAP_TAPCELL_ROW_19_85
*467 TAP_TAPCELL_ROW_1_48
*468 TAP_TAPCELL_ROW_1_49
*469 TAP_TAPCELL_ROW_20_86
*470 TAP_TAPCELL_ROW_20_87
*471 TAP_TAPCELL_ROW_21_88
*472 TAP_TAPCELL_ROW_21_89
*473 TAP_TAPCELL_ROW_21_90
*474 TAP_TAPCELL_ROW_21_91
*475 TAP_TAPCELL_ROW_2_50
*476 TAP_TAPCELL_ROW_2_51
*477 TAP_TAPCELL_ROW_3_52
*478 TAP_TAPCELL_ROW_3_53
*479 TAP_TAPCELL_ROW_4_54
*480 TAP_TAPCELL_ROW_4_55
*481 TAP_TAPCELL_ROW_5_56
*482 TAP_TAPCELL_ROW_5_57
*483 TAP_TAPCELL_ROW_6_58
*484 TAP_TAPCELL_ROW_6_59
*485 TAP_TAPCELL_ROW_7_60
*486 TAP_TAPCELL_ROW_7_61
*487 TAP_TAPCELL_ROW_8_62
*488 TAP_TAPCELL_ROW_8_63
*489 TAP_TAPCELL_ROW_9_64
*490 TAP_TAPCELL_ROW_9_65
*491 _086_
*492 _087_
*493 _088_
*494 _089_
*495 _090_
*496 _091_
*497 _092_
*498 _093_
*499 _094_
*500 _095_
*501 _096_
*502 _097_
*503 _098_
*504 _099_
*505 _100_
*506 _101_
*507 _102_
*508 _103_
*509 _104_
*510 _105_
*511 _106_
*512 _107_
*513 _108_
*514 _109_
*515 _110_
*516 _111_
*517 _112_
*518 _113_
*519 _114_
*520 _115_
*521 _116_
*522 _117_
*523 _118_
*524 _119_
*525 _120_
*526 _121_
*527 _122_
*528 _123_
*529 _124_
*530 _125_
*531 _126_
*532 _127_
*533 _128_
*534 _129_
*535 _130_
*536 _131_
*537 _132_
*538 _133_
*539 _134_
*540 _135_
*541 _136_
*542 _137_
*543 _138_
*544 _139_
*545 _140_
*546 _141_
*547 _142_
*548 _143_
*549 _144_
*550 _145_
*551 _146_
*552 _147_
*553 _148_
*554 _149_
*555 _150_
*556 _151_
*557 _152_
*558 _153_
*559 _154_
*560 _155_
*561 _156_
*562 _157_
*563 _158_
*564 _159_
*565 _160_
*566 _161_
*567 _162_
*568 _163_
*569 _164_
*570 _165_
*571 _166_
*572 _167_
*573 _168_
*574 _169_
*575 _170_
*576 _171_
*577 _172_
*578 _173_
*579 _174_
*580 _175_
*581 _176_
*582 _177_
*583 _178_
*584 _179_
*585 _180_
*586 _181_
*587 _182_
*588 _183_
*589 _184_
*590 _185_
*591 _186_
*592 _187_
*593 _188_
*594 _189_
*595 _190_
*596 _191_
*597 _192_
*598 _193_
*599 _194_
*600 _195_
*601 _196_
*602 _197_
*603 _198_
*604 _199_
*605 _200_
*606 _201_
*607 _202_
*608 _203_
*609 _204_
*610 _205_
*611 _206_
*612 _207_
*613 _208_
*614 _209_
*615 _210_
*616 _211_
*617 _212_
*618 _213_
*619 _214_
*620 clkbuf_0_clkin
*621 clkbuf_2_0__f_clkin
*622 clkbuf_2_1__f_clkin
*623 clkbuf_2_2__f_clkin
*624 clkbuf_2_3__f_clkin
*625 clkload0
*626 clkload1
*627 clkload2
*628 fanout30
*629 fanout31
*630 fanout32
*631 fanout33
*632 fanout34
*633 fanout35
*634 fanout36
*635 fanout37
*636 fanout38
*637 hold1
*638 hold10
*639 hold11
*640 hold12
*641 hold13
*642 hold14
*643 hold15
*644 hold16
*645 hold17
*646 hold18
*647 hold19
*648 hold2
*649 hold20
*650 hold21
*651 hold22
*652 hold23
*653 hold24
*654 hold25
*655 hold26
*656 hold27
*657 hold28
*658 hold29
*659 hold3
*660 hold30
*661 hold31
*662 hold32
*663 hold33
*664 hold34
*665 hold35
*666 hold36
*667 hold37
*668 hold38
*669 hold39
*670 hold4
*671 hold40
*672 hold5
*673 hold6
*674 hold7
*675 hold8
*676 hold9
*677 input1
*678 input10
*679 input11
*680 input12
*681 input13
*682 input14
*683 input15
*684 input2
*685 input3
*686 input4
*687 input5
*688 input6
*689 input7
*690 input8
*691 input9
*692 output16
*693 output17
*694 output18
*695 output19
*696 output20
*697 output21
*698 output22
*699 output23
*700 output24
*701 output25
*702 output26
*703 output27
*704 output28
*705 output29

*PORTS
clkin I
data_in[0] I
data_in[1] I
data_in[2] I
data_in[3] I
data_in[4] I
data_in[5] I
data_in[6] I
data_in[7] I
data_out[0] O
data_out[1] O
data_out[2] O
data_out[3] O
data_out[4] O
data_out[5] O
data_out[6] O
data_out[7] O
miso I
mode[0] I
mode[1] I
mosi O
reset I
sclk O
slave_select[0] O
slave_select[1] O
slave_select[2] O
slave_select[3] O
slave_select_in[0] I
slave_select_in[1] I
tx_enable I

*D_NET *3 0.00624425
*CONN
*P clkin I
*I *620:A I *D sky130_fd_sc_hd__clkbuf_16
*CAP
1 clkin 0.00296764
2 *620:A 0
3 *3:11 0.00296764
4 *3:11 data_out[0] 2.12457e-05
5 *3:11 *506:C1 0
6 *3:11 *560:A 0.000128647
7 *3:11 *566:A 0
8 *3:11 *20:11 0
9 *3:11 *36:10 0
10 *3:11 *73:45 0
11 *3:11 *77:10 0
12 *3:11 *101:8 7.03869e-05
13 *3:11 *103:10 0
14 *3:11 *116:67 0
15 *3:11 *130:10 0
16 *3:11 *130:20 1.05658e-05
17 *3:11 *131:12 0
18 *3:11 *149:26 0
19 *3:11 *155:16 7.8128e-05
20 *3:11 *155:65 0
21 *3:11 *156:86 0
22 *3:11 *160:54 0
*RES
1 clkin *3:11 48.0836 
2 *3:11 *620:A 23 
*END

*D_NET *4 0.00282374
*CONN
*P data_in[0] I
*I *677:A I *D sky130_fd_sc_hd__clkbuf_1
*CAP
1 data_in[0] 0.00091774
2 *677:A 0.000260407
3 *4:13 0.00117815
4 *677:A *18:8 1.39317e-05
5 *677:A *132:6 2.65879e-05
6 *677:A *213:14 0.000226295
7 *4:13 data_out[7] 0.000191148
8 *4:13 *6:13 0
9 *4:13 *213:14 9.48381e-06
*RES
1 data_in[0] *4:13 45.8879 
2 *4:13 *677:A 43.2821 
*END

*D_NET *5 0.00261913
*CONN
*P data_in[1] I
*I *684:A I *D sky130_fd_sc_hd__clkbuf_1
*CAP
1 data_in[1] 0.000598138
2 *684:A 0.000219776
3 *5:11 0.000817913
4 *684:A *687:A 0.000232706
5 *5:11 *7:9 0
6 *5:11 *8:11 0.000750602
*RES
1 data_in[1] *5:11 45.2457 
2 *5:11 *684:A 44.1314 
*END

*D_NET *6 0.00330027
*CONN
*P data_in[2] I
*I *685:A I *D sky130_fd_sc_hd__clkbuf_1
*CAP
1 data_in[2] 0.00105191
2 *685:A 0
3 *6:13 0.00105191
4 *6:13 *546:S 5.94125e-05
5 *6:13 *601:RESET_B 0
6 *6:13 *7:9 0
7 *6:13 *53:10 0.000138718
8 *6:13 *54:10 0.000139647
9 *6:13 *92:68 0.000377172
10 *6:13 *154:8 0.000228903
11 *6:13 *162:22 0
12 *6:13 *162:24 0
13 *6:13 *189:8 0
14 *6:13 *212:10 1.22803e-05
15 *6:13 *212:27 6.6869e-05
16 *6:13 *213:35 0.000173442
17 *6:13 *216:12 0
18 *4:13 *6:13 0
*RES
1 data_in[2] *6:13 39.215 
2 *6:13 *685:A 23 
*END

*D_NET *7 0.00205945
*CONN
*P data_in[3] I
*I *686:A I *D sky130_fd_sc_hd__clkbuf_1
*CAP
1 data_in[3] 0.000651589
2 *686:A 0
3 *7:9 0.000651589
4 *7:9 *548:S 5.3304e-05
5 *7:9 *549:A1 1.37246e-05
6 *7:9 *601:RESET_B 5.3304e-05
7 *7:9 *94:10 0.000423308
8 *7:9 *132:14 0
9 *7:9 *216:12 0.00021263
10 *5:11 *7:9 0
11 *6:13 *7:9 0
*RES
1 data_in[3] *7:9 29.9557 
2 *7:9 *686:A 23 
*END

*D_NET *8 0.0026574
*CONN
*P data_in[4] I
*I *687:A I *D sky130_fd_sc_hd__clkbuf_1
*CAP
1 data_in[4] 0.000404865
2 *687:A 0.000332056
3 *8:11 0.000736921
4 *687:A *553:S 2.95125e-05
5 *687:A *688:A 4.21594e-06
6 *687:A *143:10 0.000166522
7 *687:A *187:10 0
8 *684:A *687:A 0.000232706
9 *5:11 *8:11 0.000750602
*RES
1 data_in[4] *8:11 41.31 
2 *8:11 *687:A 46.9486 
*END

*D_NET *9 0.000724619
*CONN
*P data_in[5] I
*I *688:A I *D sky130_fd_sc_hd__clkbuf_1
*CAP
1 data_in[5] 0.000360202
2 *688:A 0.000360202
3 *688:A *689:A 0
4 *688:A *143:10 0
5 *687:A *688:A 4.21594e-06
*RES
1 data_in[5] *688:A 49.2777 
*END

*D_NET *10 0.000595109
*CONN
*P data_in[6] I
*I *689:A I *D sky130_fd_sc_hd__clkbuf_1
*CAP
1 data_in[6] 0.000297555
2 *689:A 0.000297555
3 *689:A *690:A 0
4 *689:A *157:44 0
5 *688:A *689:A 0
*RES
1 data_in[6] *689:A 48.2212 
*END

*D_NET *11 0.000517464
*CONN
*P data_in[7] I
*I *690:A I *D sky130_fd_sc_hd__clkbuf_1
*CAP
1 data_in[7] 0.000258732
2 *690:A 0.000258732
3 *690:A mosi 0
4 *690:A *157:40 0
5 *689:A *690:A 0
*RES
1 data_in[7] *690:A 47.5169 
*END

*D_NET *12 0.000762608
*CONN
*P data_out[0] O
*I *692:X O *D sky130_fd_sc_hd__buf_2
*CAP
1 data_out[0] 7.65184e-05
2 *692:X 0.000278539
3 *12:14 0.000355058
4 data_out[0] *20:11 1.5289e-05
5 *12:14 *20:11 1.59585e-05
6 *3:11 data_out[0] 2.12457e-05
*RES
1 *692:X *12:14 49.9 
2 *12:14 data_out[0] 0.382667 
*END

*D_NET *13 0.000827336
*CONN
*P data_out[1] O
*I *693:X O *D sky130_fd_sc_hd__buf_2
*CAP
1 data_out[1] 0.000114258
2 *693:X 0.000273815
3 *13:12 0.000388072
4 data_out[1] data_out[2] 5.11907e-05
5 data_out[1] *24:17 0
6 *13:12 *140:14 0
*RES
1 *693:X *13:12 49.7804 
2 *13:12 data_out[1] 0.500267 
*END

*D_NET *14 0.000710849
*CONN
*P data_out[2] O
*I *694:X O *D sky130_fd_sc_hd__buf_2
*CAP
1 data_out[2] 0.000329829
2 *694:X 0.000329829
3 data_out[2] data_out[5] 0
4 data_out[2] *141:8 0
5 data_out[1] data_out[2] 5.11907e-05
*RES
1 *694:X data_out[2] 48.7952 
*END

*D_NET *15 0.00125391
*CONN
*P data_out[3] O
*I *695:X O *D sky130_fd_sc_hd__buf_2
*CAP
1 data_out[3] 0.000154318
2 *695:X 0.000272224
3 *15:10 0.000426542
4 data_out[3] data_out[5] 6.91028e-05
5 *15:10 *142:8 0.000302339
6 *15:10 *142:12 2.93845e-05
*RES
1 *695:X *15:10 43.6446 
2 *15:10 data_out[3] 8.672 
*END

*D_NET *16 0.000936389
*CONN
*P data_out[4] O
*I *696:X O *D sky130_fd_sc_hd__buf_2
*CAP
1 data_out[4] 0.000468195
2 *696:X 0.000468195
*RES
1 *696:X data_out[4] 47.0936 
*END

*D_NET *17 0.00275195
*CONN
*P data_out[5] O
*I *697:X O *D sky130_fd_sc_hd__buf_2
*CAP
1 data_out[5] 0.00105795
2 *697:X 0.000283478
3 *17:8 0.00134142
4 *17:8 *46:8 0
5 *17:8 *49:8 0
6 *17:8 *73:65 0
7 *17:8 *73:67 0
8 *17:8 *105:31 0
9 *17:8 *225:18 0
10 data_out[2] data_out[5] 0
11 data_out[3] data_out[5] 6.91028e-05
*RES
1 *697:X *17:8 42.5468 
2 *17:8 data_out[5] 11.1621 
*END

*D_NET *18 0.00174968
*CONN
*P data_out[6] O
*I *698:X O *D sky130_fd_sc_hd__buf_2
*CAP
1 data_out[6] 0.000377599
2 *698:X 0.000450242
3 *18:8 0.000827841
4 data_out[6] data_out[7] 0
5 *18:8 *659:A 2.30292e-05
6 *18:8 *146:20 5.70419e-05
7 *677:A *18:8 1.39317e-05
*RES
1 *698:X *18:8 44.3386 
2 *18:8 data_out[6] 7.99571 
*END

*D_NET *19 0.00148887
*CONN
*P data_out[7] O
*I *699:X O *D sky130_fd_sc_hd__buf_2
*CAP
1 data_out[7] 0.000487783
2 *699:X 0.000130912
3 *19:8 0.000618695
4 data_out[7] *51:10 0
5 data_out[7] *52:10 4.08537e-05
6 data_out[7] *213:14 0
7 *19:8 *699:A 1.94812e-05
8 data_out[6] data_out[7] 0
9 *4:13 data_out[7] 0.000191148
*RES
1 *699:X *19:8 39.5743 
2 *19:8 data_out[7] 10.8129 
*END

*D_NET *20 0.00134507
*CONN
*P miso I
*I *691:A I *D sky130_fd_sc_hd__clkbuf_1
*CAP
1 miso 0.000431694
2 *691:A 0
3 *20:11 0.000431694
4 *20:11 *640:A 1.14452e-05
5 *20:11 *24:17 3.12475e-05
6 *20:11 *139:10 0.000169674
7 *20:11 *209:10 0.000238064
8 data_out[0] *20:11 1.5289e-05
9 *3:11 *20:11 0
10 *12:14 *20:11 1.59585e-05
*RES
1 miso *20:11 28.296 
2 *20:11 *691:A 23 
*END

*D_NET *21 0.000922526
*CONN
*P mode[0] I
*I *678:A I *D sky130_fd_sc_hd__clkbuf_1
*CAP
1 mode[0] 0.000461263
2 *678:A 0.000461263
3 *678:A *679:A 0
*RES
1 mode[0] *678:A 48.1707 
*END

*D_NET *22 0.000957948
*CONN
*P mode[1] I
*I *679:A I *D sky130_fd_sc_hd__clkbuf_1
*CAP
1 mode[1] 0.000477118
2 *679:A 0.000477118
3 *679:A *133:10 3.7122e-06
4 *678:A *679:A 0
*RES
1 mode[1] *679:A 48.0257 
*END

*D_NET *23 0.000628436
*CONN
*P mosi O
*I *700:X O *D sky130_fd_sc_hd__buf_2
*CAP
1 mosi 0.000257953
2 *700:X 0.000257953
3 mosi *683:A 8.97484e-05
4 mosi *157:40 2.2781e-05
5 *690:A mosi 0
*RES
1 *700:X mosi 47.955 
*END

*D_NET *24 0.000703381
*CONN
*P reset I
*I *680:A I *D sky130_fd_sc_hd__buf_1
*CAP
1 reset 0.000336067
2 *680:A 0
3 *24:17 0.000336067
4 data_out[1] *24:17 0
5 *20:11 *24:17 3.12475e-05
*RES
1 reset *24:17 27.8627 
2 *24:17 *680:A 23 
*END

*D_NET *25 0.000987333
*CONN
*P sclk O
*I *701:X O *D sky130_fd_sc_hd__buf_2
*CAP
1 sclk 0.000493667
2 *701:X 0.000493667
*RES
1 *701:X sclk 47.7979 
*END

*D_NET *26 0.000987333
*CONN
*P slave_select[0] O
*I *702:X O *D sky130_fd_sc_hd__buf_2
*CAP
1 slave_select[0] 0.000493667
2 *702:X 0.000493667
3 slave_select[0] *682:A 0
*RES
1 *702:X slave_select[0] 47.7979 
*END

*D_NET *27 0.0010663
*CONN
*P slave_select[1] O
*I *703:X O *D sky130_fd_sc_hd__buf_2
*CAP
1 slave_select[1] 0.000533151
2 *703:X 0.000533151
3 slave_select[1] *681:A 0
*RES
1 *703:X slave_select[1] 48.2743 
*END

*D_NET *28 0.00107344
*CONN
*P slave_select[2] O
*I *704:X O *D sky130_fd_sc_hd__buf_2
*CAP
1 slave_select[2] 0.000536719
2 *704:X 0.000536719
3 slave_select[2] slave_select[3] 0
4 slave_select[2] *681:A 0
*RES
1 *704:X slave_select[2] 48.2743 
*END

*D_NET *29 0.000981215
*CONN
*P slave_select[3] O
*I *705:X O *D sky130_fd_sc_hd__buf_2
*CAP
1 slave_select[3] 0.000484677
2 *705:X 0.000484677
3 slave_select[3] *682:A 0
4 slave_select[3] *137:36 1.18615e-05
5 slave_select[2] slave_select[3] 0
*RES
1 *705:X slave_select[3] 47.7979 
*END

*D_NET *30 0.00106341
*CONN
*P slave_select_in[0] I
*I *681:A I *D sky130_fd_sc_hd__buf_1
*CAP
1 slave_select_in[0] 0.000520191
2 *681:A 0.000520191
3 *681:A *136:10 2.30292e-05
4 *681:A *152:10 0
5 slave_select[1] *681:A 0
6 slave_select[2] *681:A 0
*RES
1 slave_select_in[0] *681:A 48.9786 
*END

*D_NET *31 0.000993091
*CONN
*P slave_select_in[1] I
*I *682:A I *D sky130_fd_sc_hd__buf_1
*CAP
1 slave_select_in[1] 0.000468192
2 *682:A 0.000468192
3 *682:A *702:A 5.67058e-05
4 slave_select[0] *682:A 0
5 slave_select[3] *682:A 0
*RES
1 slave_select_in[1] *682:A 48.0257 
*END

*D_NET *32 0.00061167
*CONN
*P tx_enable I
*I *683:A I *D sky130_fd_sc_hd__buf_1
*CAP
1 tx_enable 0.000232455
2 *683:A 0.000232455
3 *683:A *230:10 5.70112e-05
4 mosi *683:A 8.97484e-05
*RES
1 tx_enable *683:A 48.2212 
*END

*D_NET *33 0.00139735
*CONN
*I *606:D I *D sky130_fd_sc_hd__dfrtp_1
*I *517:Y O *D sky130_fd_sc_hd__nor2_1
*CAP
1 *606:D 5.145e-05
2 *517:Y 0.000314617
3 *33:10 0.000366067
4 *33:10 *517:A 6.9805e-05
5 *33:10 *517:B 0.000139346
6 *33:10 *520:B1 9.48381e-06
7 *33:10 *35:8 0.000195248
8 *33:10 *115:28 1.44813e-05
9 *33:10 *119:10 1.69668e-05
10 *33:10 *164:10 0.000219882
*RES
1 *517:Y *33:10 44.67 
2 *33:10 *606:D 38.6214 
*END

*D_NET *34 0.000430351
*CONN
*I *607:D I *D sky130_fd_sc_hd__dfrtp_1
*I *520:Y O *D sky130_fd_sc_hd__a21oi_1
*CAP
1 *607:D 0
2 *520:Y 0.000150228
3 *34:10 0.000150228
4 *34:10 *520:A1 0
5 *34:10 *622:A 5.70419e-05
6 *34:10 *119:10 7.28526e-05
*RES
1 *520:Y *34:10 41.0036 
2 *34:10 *607:D 38 
*END

*D_NET *35 0.000824038
*CONN
*I *608:D I *D sky130_fd_sc_hd__dfstp_1
*I *521:X O *D sky130_fd_sc_hd__a21o_1
*CAP
1 *608:D 3.38811e-05
2 *521:X 0.000120807
3 *35:8 0.000154688
4 *608:D *517:A 5.50049e-05
5 *35:8 *115:28 0.000183898
6 *35:8 *164:10 8.05114e-05
7 *33:10 *35:8 0.000195248
*RES
1 *521:X *35:8 42.7229 
2 *35:8 *608:D 38.6214 
*END

*D_NET *36 0.00112029
*CONN
*I *619:D I *D sky130_fd_sc_hd__dfrtp_1
*I *523:X O *D sky130_fd_sc_hd__a21bo_1
*CAP
1 *619:D 5.41196e-05
2 *523:X 0.000354866
3 *36:10 0.000408986
4 *619:D *619:RESET_B 9.84794e-05
5 *619:D *105:14 7.59794e-05
6 *36:10 *522:B 1.32939e-05
7 *36:10 *85:12 7.44257e-05
8 *36:10 *161:8 9.5876e-06
9 *36:10 *161:14 3.0556e-05
10 *3:11 *36:10 0
*RES
1 *523:X *36:10 44.3386 
2 *36:10 *619:D 39.5743 
*END

*D_NET *37 0.000392067
*CONN
*I *583:D I *D sky130_fd_sc_hd__dfstp_1
*I *500:X O *D sky130_fd_sc_hd__a2bb2o_1
*CAP
1 *583:D 1.80182e-05
2 *500:X 8.57219e-05
3 *37:8 0.00010374
4 *583:D *116:16 5.50106e-05
5 *583:D *205:10 2.93845e-05
6 *37:8 *73:24 1.69668e-05
7 *37:8 *82:12 4.23714e-05
8 *37:8 *205:10 4.08537e-05
*RES
1 *500:X *37:8 39.9057 
2 *37:8 *583:D 38.6214 
*END

*D_NET *38 0.00176736
*CONN
*I *584:D I *D sky130_fd_sc_hd__dfrtp_2
*I *497:X O *D sky130_fd_sc_hd__o21a_1
*CAP
1 *584:D 0.000550289
2 *497:X 0.000280118
3 *38:8 0.000830407
4 *584:D *117:31 0.00010655
5 *38:8 *497:A1 0
6 *38:8 *584:RESET_B 0
7 *38:8 *229:8 0
*RES
1 *497:X *38:8 43.075 
2 *38:8 *584:D 48.15 
*END

*D_NET *39 0.00117157
*CONN
*I *585:D I *D sky130_fd_sc_hd__dfrtp_1
*I *502:X O *D sky130_fd_sc_hd__a32o_1
*CAP
1 *585:D 0.000114744
2 *502:X 0.000416546
3 *39:8 0.00053129
4 *39:8 *584:RESET_B 0
5 *39:8 *73:24 0
6 *39:8 *117:10 4.08641e-05
7 *39:8 *163:37 0
8 *39:8 *163:62 0
9 *39:8 *228:16 6.03634e-05
10 *39:8 *228:40 7.76364e-06
*RES
1 *502:X *39:8 45.54 
2 *39:8 *585:D 40.0507 
*END

*D_NET *40 0.000793011
*CONN
*I *586:D I *D sky130_fd_sc_hd__dfxtp_1
*I *528:Y O *D sky130_fd_sc_hd__nand2_1
*CAP
1 *586:D 1.26271e-05
2 *528:Y 0.000192223
3 *40:8 0.00020485
4 *586:D *586:CLK 1.64354e-05
5 *40:8 *86:23 0
6 *40:8 *87:21 0.000218952
7 *40:8 *127:25 0.000138708
8 *40:8 *128:19 0
9 *40:8 *203:8 9.21347e-06
*RES
1 *528:Y *40:8 42.3707 
2 *40:8 *586:D 38.1916 
*END

*D_NET *41 0.000784157
*CONN
*I *587:D I *D sky130_fd_sc_hd__dfxtp_1
*I *530:X O *D sky130_fd_sc_hd__a2bb2o_1
*CAP
1 *587:D 1.58638e-05
2 *530:X 0.000280129
3 *41:10 0.000295993
4 *41:10 *587:CLK 7.66188e-05
5 *41:10 *87:6 5.67058e-05
6 *41:10 *123:39 1.7992e-05
7 *41:10 *127:12 4.08537e-05
*RES
1 *530:X *41:10 43.6964 
2 *41:10 *587:D 38.1916 
*END

*D_NET *42 0.00122911
*CONN
*I *588:D I *D sky130_fd_sc_hd__dfxtp_1
*I *532:X O *D sky130_fd_sc_hd__a41o_1
*CAP
1 *588:D 3.77525e-05
2 *532:X 0.000297737
3 *42:10 0.000335489
4 *588:D *501:D 5.50049e-05
5 *588:D *78:20 5.19297e-05
6 *588:D *116:48 5.6508e-05
7 *42:10 *532:B1 6.17437e-06
8 *42:10 *589:CLK 0
9 *42:10 *91:8 0.000370859
10 *42:10 *115:18 1.76557e-05
11 *42:10 *163:14 0
12 *42:10 *163:20 0
*RES
1 *532:X *42:10 43.6964 
2 *42:10 *588:D 39.6209 
*END

*D_NET *43 0.00117511
*CONN
*I *589:D I *D sky130_fd_sc_hd__dfrtp_1
*I *533:Y O *D sky130_fd_sc_hd__nand2_1
*CAP
1 *589:D 2.66333e-05
2 *533:Y 0.000210412
3 *43:10 0.000237046
4 *589:D *589:RESET_B 2.93747e-05
5 *589:D *155:8 2.64616e-05
6 *43:10 *499:B 1.21972e-05
7 *43:10 *85:27 0.000117096
8 *43:10 *115:61 2.84809e-05
9 *43:10 *115:72 1.42006e-05
10 *43:10 *119:36 0.000339893
11 *43:10 *155:31 0.000133316
*RES
1 *533:Y *43:10 43.3443 
2 *43:10 *589:D 38.6214 
*END

*D_NET *44 0.000528878
*CONN
*I *641:A I *D sky130_fd_sc_hd__dlygate4sd3_1
*I *534:X O *D sky130_fd_sc_hd__mux2_1
*CAP
1 *641:A 0
2 *534:X 0.000182817
3 *44:8 0.000182817
4 *44:8 *73:161 2.18409e-05
5 *44:8 *160:10 8.63919e-05
6 *44:8 *178:10 5.50106e-05
*RES
1 *534:X *44:8 27.3293 
2 *44:8 *641:A 23 
*END

*D_NET *45 0.00167459
*CONN
*I *651:A I *D sky130_fd_sc_hd__dlygate4sd3_1
*I *535:X O *D sky130_fd_sc_hd__mux2_1
*CAP
1 *651:A 0
2 *535:X 0.000696757
3 *45:10 0.000696757
4 *45:10 *591:D 9.8971e-06
5 *45:10 *591:RESET_B 2.52027e-05
6 *45:10 *650:A 1.68214e-05
7 *45:10 *73:61 5.10805e-05
8 *45:10 *122:53 7.44354e-05
9 *45:10 *122:66 0.000103637
10 *45:10 *160:28 0
*RES
1 *535:X *45:10 48.15 
2 *45:10 *651:A 38 
*END

*D_NET *46 0.000653583
*CONN
*I *676:A I *D sky130_fd_sc_hd__dlygate4sd3_1
*I *536:X O *D sky130_fd_sc_hd__mux2_1
*CAP
1 *676:A 9.07776e-05
2 *536:X 0.000109703
3 *46:8 0.00020048
4 *676:A *225:18 0.000227208
5 *46:8 *73:65 0
6 *46:8 *173:10 2.5415e-05
7 *17:8 *46:8 0
*RES
1 *536:X *46:8 39.9057 
2 *46:8 *676:A 40.5271 
*END

*D_NET *47 0.000651291
*CONN
*I *643:A I *D sky130_fd_sc_hd__dlygate4sd3_1
*I *537:X O *D sky130_fd_sc_hd__mux2_1
*CAP
1 *643:A 0
2 *537:X 0.000119312
3 *47:8 0.000119312
4 *47:8 *73:94 0.000228909
5 *47:8 *223:24 0.000183758
*RES
1 *537:X *47:8 27.3293 
2 *47:8 *643:A 23 
*END

*D_NET *48 0.00017457
*CONN
*I *674:A I *D sky130_fd_sc_hd__dlygate4sd3_1
*I *538:X O *D sky130_fd_sc_hd__mux2_1
*CAP
1 *674:A 8.7285e-05
2 *538:X 8.7285e-05
*RES
1 *538:X *674:A 47.595 
*END

*D_NET *49 0.00118016
*CONN
*I *639:A I *D sky130_fd_sc_hd__dlygate4sd3_1
*I *539:X O *D sky130_fd_sc_hd__mux2_1
*CAP
1 *639:A 0.000314695
2 *539:X 6.9415e-05
3 *49:8 0.00038411
4 *639:A *631:A 0.000230089
5 *639:A *175:6 6.70749e-05
6 *49:8 *73:67 0.000114776
7 *17:8 *49:8 0
*RES
1 *539:X *49:8 39.5536 
2 *49:8 *639:A 44.8357 
*END

*D_NET *50 0.00239572
*CONN
*I *596:D I *D sky130_fd_sc_hd__dfrtp_1
*I *540:X O *D sky130_fd_sc_hd__mux2_1
*CAP
1 *596:D 0.000584116
2 *540:X 9.20752e-05
3 *50:8 0.000676192
4 *596:D *596:CLK 3.23857e-06
5 *596:D *596:RESET_B 0.000216277
6 *596:D *158:78 0.000221386
7 *50:8 *146:35 0.000300098
8 *50:8 *158:78 0.000302339
*RES
1 *540:X *50:8 42.0186 
2 *50:8 *596:D 47.2179 
*END

*D_NET *51 0.000449724
*CONN
*I *659:A I *D sky130_fd_sc_hd__dlygate4sd3_1
*I *541:X O *D sky130_fd_sc_hd__mux2_1
*CAP
1 *659:A 2.81847e-05
2 *541:X 0.000176332
3 *51:10 0.000204516
4 *51:10 *146:20 0
5 *51:10 *146:35 6.17437e-06
6 *51:10 *158:78 1.14876e-05
7 data_out[7] *51:10 0
8 *18:8 *659:A 2.30292e-05
*RES
1 *541:X *51:10 40.5271 
2 *51:10 *659:A 38.6214 
*END

*D_NET *52 0.000667264
*CONN
*I *598:D I *D sky130_fd_sc_hd__dfrtp_1
*I *544:X O *D sky130_fd_sc_hd__a21bo_1
*CAP
1 *598:D 0
2 *544:X 0.000234578
3 *52:10 0.000234578
4 *52:10 *73:123 0
5 *52:10 *121:22 5.80963e-05
6 *52:10 *147:10 0
7 *52:10 *166:19 0
8 *52:10 *213:14 9.91569e-05
9 *52:10 *213:35 0
10 data_out[7] *52:10 4.08537e-05
*RES
1 *544:X *52:10 42.9921 
2 *52:10 *598:D 38 
*END

*D_NET *53 0.000465299
*CONN
*I *599:D I *D sky130_fd_sc_hd__dfrtp_1
*I *546:X O *D sky130_fd_sc_hd__mux2_1
*CAP
1 *599:D 0
2 *546:X 0.000124676
3 *53:10 0.000124676
4 *53:10 *544:B1_N 5.50106e-05
5 *53:10 *601:RESET_B 2.22183e-05
6 *6:13 *53:10 0.000138718
*RES
1 *546:X *53:10 40.5271 
2 *53:10 *599:D 38 
*END

*D_NET *54 0.000938516
*CONN
*I *600:D I *D sky130_fd_sc_hd__dfrtp_1
*I *548:X O *D sky130_fd_sc_hd__mux2_1
*CAP
1 *600:D 0.000218862
2 *548:X 0.000127884
3 *54:10 0.000346746
4 *600:D *600:RESET_B 5.03716e-05
5 *54:10 *162:24 0
6 *54:10 *212:27 5.50049e-05
7 *6:13 *54:10 0.000139647
*RES
1 *548:X *54:10 40.5271 
2 *54:10 *600:D 41.9564 
*END

*D_NET *55 0.000241282
*CONN
*I *601:D I *D sky130_fd_sc_hd__dfrtp_1
*I *550:X O *D sky130_fd_sc_hd__mux2_1
*CAP
1 *601:D 1.47919e-05
2 *550:X 5.60739e-05
3 *55:8 7.08657e-05
4 *601:D *92:49 1.10317e-05
5 *55:8 *96:10 0
6 *55:8 *215:16 8.85189e-05
*RES
1 *550:X *55:8 39.2014 
2 *55:8 *601:D 38.2123 
*END

*D_NET *56 0.000365061
*CONN
*I *602:D I *D sky130_fd_sc_hd__dfrtp_1
*I *552:X O *D sky130_fd_sc_hd__mux2_1
*CAP
1 *602:D 8.91596e-05
2 *552:X 8.91596e-05
3 *602:D *602:CLK 5.83407e-05
4 *602:D *176:10 0.000128401
*RES
1 *552:X *602:D 49.0243 
*END

*D_NET *57 0.000469035
*CONN
*I *603:D I *D sky130_fd_sc_hd__dfrtp_1
*I *554:X O *D sky130_fd_sc_hd__mux2_1
*CAP
1 *603:D 0
2 *554:X 0.000138511
3 *57:10 0.000138511
4 *57:10 *554:A1 0
5 *57:10 *183:6 5.3304e-05
6 *57:10 *184:8 0.000138708
*RES
1 *554:X *57:10 40.5271 
2 *57:10 *603:D 38 
*END

*D_NET *58 0.000639989
*CONN
*I *604:D I *D sky130_fd_sc_hd__dfrtp_1
*I *556:X O *D sky130_fd_sc_hd__mux2_1
*CAP
1 *604:D 0
2 *556:X 0.000235104
3 *58:10 0.000235104
4 *58:10 *556:A1 5.70419e-05
5 *58:10 *99:12 0
6 *58:10 *184:8 0
7 *58:10 *218:16 0.00011274
*RES
1 *556:X *58:10 41.9564 
2 *58:10 *604:D 38 
*END

*D_NET *59 0.000953472
*CONN
*I *605:D I *D sky130_fd_sc_hd__dfrtp_1
*I *558:X O *D sky130_fd_sc_hd__mux2_1
*CAP
1 *605:D 1.47919e-05
2 *558:X 0.000442478
3 *59:10 0.00045727
4 *605:D *635:A 1.10317e-05
5 *59:10 *585:CLK 2.79004e-05
*RES